                                  MODFLOW-NWT-SWR1 
      U.S. GEOLOGICAL SURVEY MODULAR FINITE-DIFFERENCE GROUNDWATER-FLOW MODEL
                            VERSION 1.2.0 03/01/2020
                    BASED ON MODFLOW-2005 VERSION 1.12.00 02/03/2017

 LIST FILE: ./output/Agwater1_low.lst
                         UNIT    9

 OPENING ./input/Agwater1.ba6
 FILE TYPE:BAS6   UNIT   75   STATUS:OLD    
 FORMAT:FORMATTED              ACCESS:SEQUENTIAL          

 OPENING ./input/Agwater1.upw
 FILE TYPE:UPW   UNIT    7   STATUS:OLD    
 FORMAT:FORMATTED              ACCESS:SEQUENTIAL          

 OPENING ./input/Agwater1.dis
 FILE TYPE:DIS   UNIT    8   STATUS:OLD    
 FORMAT:FORMATTED              ACCESS:SEQUENTIAL          

 OPENING ./input/Agwater1.nwt
 FILE TYPE:NWT   UNIT   13   STATUS:OLD    
 FORMAT:FORMATTED              ACCESS:SEQUENTIAL          

 OPENING ./input/Agwater1.oc
 FILE TYPE:OC   UNIT   14   STATUS:OLD    
 FORMAT:FORMATTED              ACCESS:SEQUENTIAL          

 OPENING ./input/Agwater1.sfr
 FILE TYPE:SFR   UNIT   15   STATUS:OLD    
 FORMAT:FORMATTED              ACCESS:SEQUENTIAL          

 OPENING ./input/Agwater1.ghb
 FILE TYPE:GHB   UNIT   17   STATUS:OLD    
 FORMAT:FORMATTED              ACCESS:SEQUENTIAL          

 OPENING ./input/Agwater1.uzf
 FILE TYPE:UZF   UNIT   19   STATUS:OLD    
 FORMAT:FORMATTED              ACCESS:SEQUENTIAL          

 OPENING ./input/Agwater1.gag
 FILE TYPE:GAGE   UNIT   32   STATUS:OLD    
 FORMAT:FORMATTED              ACCESS:SEQUENTIAL          

 OPENING ./input/seg1_low.tab
 FILE TYPE:DATA   UNIT   55   STATUS:UNKNOWN
 FORMAT:FORMATTED              ACCESS:SEQUENTIAL          

 OPENING ./input/seg9.tab
 FILE TYPE:DATA   UNIT   56   STATUS:UNKNOWN
 FORMAT:FORMATTED              ACCESS:SEQUENTIAL          

 OPENING ./input/Agwater1.ag
 FILE TYPE:AG   UNIT   57   STATUS:OLD    
 FORMAT:FORMATTED              ACCESS:SEQUENTIAL          

 OPENING ./output/Agwater1_low.hed
 FILE TYPE:DATA   UNIT   62   STATUS:UNKNOWN
 FORMAT:FORMATTED              ACCESS:SEQUENTIAL          

 OPENING ./output/Agwater1gw_low.ts5
 FILE TYPE:DATA   UNIT  105   STATUS:UNKNOWN
 FORMAT:FORMATTED              ACCESS:SEQUENTIAL          

 OPENING ./output/Agwater1SW_low.ts9
 FILE TYPE:DATA   UNIT  107   STATUS:UNKNOWN
 FORMAT:FORMATTED              ACCESS:SEQUENTIAL          

 OPENING ./output/Agwater1SW_ET_low.ts9
 FILE TYPE:DATA   UNIT  108   STATUS:UNKNOWN
 FORMAT:FORMATTED              ACCESS:SEQUENTIAL          

 OPENING ./output/Agwater1_low.uzfot
 FILE TYPE:DATA(BINARY)   UNIT   61   STATUS:UNKNOWN
 FORMAT:BINARY                 ACCESS:SEQUENTIAL          

 OPENING ./output/Agwater1cbc_low.unf
 FILE TYPE:DATA(BINARY)   UNIT  102   STATUS:UNKNOWN
 FORMAT:BINARY                 ACCESS:SEQUENTIAL          

 OPENING ./output/Agwater1_low.uzf1
 FILE TYPE:DATA   UNIT   65   STATUS:UNKNOWN
 FORMAT:FORMATTED              ACCESS:SEQUENTIAL          

 OPENING ./output/Agwater1_low.uzf2
 FILE TYPE:DATA   UNIT   66   STATUS:UNKNOWN
 FORMAT:FORMATTED              ACCESS:SEQUENTIAL          

 OPENING ./output/Agwater1_low.uzf3
 FILE TYPE:DATA   UNIT   67   STATUS:UNKNOWN
 FORMAT:FORMATTED              ACCESS:SEQUENTIAL          

 OPENING ./output/Agwater1_low.uzf4
 FILE TYPE:DATA   UNIT   68   STATUS:UNKNOWN
 FORMAT:FORMATTED              ACCESS:SEQUENTIAL          

 OPENING ./output/Agwater1_low.flw
 FILE TYPE:DATA   UNIT   81   STATUS:UNKNOWN
 FORMAT:FORMATTED              ACCESS:SEQUENTIAL          

 OPENING ./output/Agwater1_low.sg1
 FILE TYPE:DATA   UNIT   83   STATUS:UNKNOWN
 FORMAT:FORMATTED              ACCESS:SEQUENTIAL          

 OPENING ./output/Agwater1_low.sg2
 FILE TYPE:DATA   UNIT   84   STATUS:UNKNOWN
 FORMAT:FORMATTED              ACCESS:SEQUENTIAL          

 OPENING ./output/Agwater1_low.sg3
 FILE TYPE:DATA   UNIT   85   STATUS:UNKNOWN
 FORMAT:FORMATTED              ACCESS:SEQUENTIAL          

 OPENING ./output/Agwater1_low.sg4
 FILE TYPE:DATA   UNIT   86   STATUS:UNKNOWN
 FORMAT:FORMATTED              ACCESS:SEQUENTIAL          

 OPENING ./output/Agwater1_low.sg5
 FILE TYPE:DATA   UNIT   87   STATUS:UNKNOWN
 FORMAT:FORMATTED              ACCESS:SEQUENTIAL          

 OPENING ./output/Agwater1_low.sg6
 FILE TYPE:DATA   UNIT   88   STATUS:UNKNOWN
 FORMAT:FORMATTED              ACCESS:SEQUENTIAL          

 OPENING ./output/Agwater1_low.sg7
 FILE TYPE:DATA   UNIT   89   STATUS:UNKNOWN
 FORMAT:FORMATTED              ACCESS:SEQUENTIAL          

 OPENING ./output/Agwater1_low.sg8
 FILE TYPE:DATA   UNIT   90   STATUS:UNKNOWN
 FORMAT:FORMATTED              ACCESS:SEQUENTIAL          

 OPENING ./output/Agwater1_low.sg9
 FILE TYPE:DATA   UNIT   91   STATUS:UNKNOWN
 FORMAT:FORMATTED              ACCESS:SEQUENTIAL          

 BAS -- BASIC PACKAGE, VERSION 1.1.4, 4/01/2018 INPUT READ FROM UNIT   75
 
 MODFLOW was compiled using mixed precision
 Precision of REAL variables:           6
 Precision of DOUBLE PRECISION variables:          15

 DISCRETIZATION INPUT DATA READ FROM UNIT    8
 #Test problem 2-- Discretization input
 #Example problem using the UZF1 Package
    1 LAYERS        15 ROWS        10 COLUMNS
   49 STRESS PERIOD(S) IN SIMULATION
 MODEL TIME UNIT IS SECONDS
 MODEL LENGTH UNIT IS FEET
  Confining bed flag for each layer:
   0

                     DELR =   5000.00    

                     DELC =   5000.00    



           TOP ELEVATION OF LAYER 1
 READING ON UNIT    8 WITH FORMAT: (10F7.0)            

            1           2           3           4           5           6           7           8           9          10
 ........................................................................................................................
   1    1105.       1105.       0.000       0.000       0.000       0.000       0.000       0.000       0.000       0.000    
   2    1105.       1095.       1105.       0.000       0.000       1100.       1100.       1110.       0.000       0.000    
   3    0.000       1100.       1085.       1080.       1078.       1076.       1073.       1090.       0.000       0.000    
   4    1110.       1100.       1090.       1085.       1076.       1080.       1080.       1070.       1100.       0.000    
   5    1110.       1100.       1085.       1080.       1078.       1074.       1077.       1066.       1075.       1080.    
   6    1105.       1095.       1080.       1077.       1073.       1069.       1070.       1063.       1085.       1095.    
   7    1105.       1090.       1075.       1072.       1070.       1065.       1065.       1069.       1090.       0.000    
   8    0.000       1080.       1070.       1068.       1063.       1060.       1063.       1067.       1090.       0.000    
   9    0.000       1075.       1065.       1062.       1058.       1052.       1055.       1065.       1090.       0.000    
  10    0.000       1070.       1060.       1055.       1046.       1046.       1044.       1060.       1088.       1100.    
  11    0.000       1055.       1050.       1045.       1041.       1042.       1040.       1050.       1075.       0.000    
  12    1027.       1028.       1028.       1032.       1032.       1033.       1032.       1040.       1060.       0.000    
  13    997.0       1004.       1008.       1014.       1020.       1027.       1032.       1038.       1050.       0.000    
  14    0.000       1030.       1040.       1045.       1050.       1050.       1050.       1050.       1044.       0.000    
  15    0.000       0.000       1080.       1080.       1080.       1080.       0.000       0.000       0.000       0.000    



             MODEL LAYER BOTTOM EL. FOR LAYER   1
 READING ON UNIT    8 WITH FORMAT: (10F7.0)            

            1           2           3           4           5           6           7           8           9          10
 ........................................................................................................................
   1    1000.       1000.       0.000       0.000       0.000       0.000       0.000       0.000       0.000       0.000    
   2    1000.       900.0       900.0       0.000       0.000       950.0       950.0       950.0       0.000       0.000    
   3    0.000       850.0       670.0       680.0       680.0       770.0       770.0       890.0       0.000       0.000    
   4    925.0       850.0       650.0       650.0       650.0       680.0       740.0       850.0       950.0       0.000    
   5    925.0       800.0       650.0       600.0       600.0       600.0       650.0       720.0       850.0       950.0    
   6    925.0       800.0       650.0       600.0       550.0       600.0       650.0       720.0       850.0       970.0    
   7    925.0       800.0       650.0       600.0       550.0       600.0       650.0       720.0       950.0       0.000    
   8    0.000       850.0       700.0       650.0       570.0       600.0       700.0       850.0       950.0       0.000    
   9    0.000       850.0       700.0       650.0       540.0       580.0       700.0       850.0       950.0       0.000    
  10    0.000       850.0       700.0       630.0       530.0       580.0       650.0       800.0       900.0       950.0    
  11    0.000       850.0       700.0       620.0       580.0       620.0       700.0       800.0       900.0       0.000    
  12    900.0       830.0       710.0       640.0       600.0       650.0       700.0       800.0       900.0       0.000    
  13    900.0       810.0       750.0       700.0       650.0       700.0       750.0       800.0       900.0       0.000    
  14    0.000       950.0       850.0       850.0       850.0       850.0       850.0       850.0       850.0       0.000    
  15    0.000       0.000       950.0       950.0       950.0       950.0       0.000       0.000       0.000       0.000    


 STRESS PERIOD     LENGTH       TIME STEPS     MULTIPLIER FOR DELT    SS FLAG
 ----------------------------------------------------------------------------
        1         86400.00          1                    1.000         SS
        2         2630000.         30                    1.000         TR
        3         2630000.         30                    1.000         TR
        4         2630000.         30                    1.000         TR
        5         2630000.         30                    1.000         TR
        6         2630000.         30                    1.000         TR
        7         2630000.         30                    1.000         TR
        8         2630000.         30                    1.000         TR
        9         2630000.         30                    1.000         TR
       10         2630000.         30                    1.000         TR
       11         2630000.         30                    1.000         TR
       12         2630000.         30                    1.000         TR
       13         2630000.         30                    1.000         TR
       14         2630000.         30                    1.000         TR
       15         2630000.         30                    1.000         TR
       16         2630000.         30                    1.000         TR
       17         2630000.         30                    1.000         TR
       18         2630000.         30                    1.000         TR
       19         2630000.         30                    1.000         TR
       20         2630000.         30                    1.000         TR
       21         2630000.         30                    1.000         TR
       22         2630000.         30                    1.000         TR
       23         2630000.         30                    1.000         TR
       24         2630000.         30                    1.000         TR
       25         2630000.         30                    1.000         TR
       26         2630000.         30                    1.000         TR
       27         2630000.         30                    1.000         TR
       28         2630000.         30                    1.000         TR
       29         2630000.         30                    1.000         TR
       30         2630000.         30                    1.000         TR
       31         2630000.         30                    1.000         TR
       32         2630000.         30                    1.000         TR
       33         2630000.         30                    1.000         TR
       34         2630000.         30                    1.000         TR
       35         2630000.         30                    1.000         TR
       36         2630000.         30                    1.000         TR
       37         2630000.         30                    1.000         TR
       38         2630000.         30                    1.000         TR
       39         2630000.         30                    1.000         TR
       40         2630000.         30                    1.000         TR
       41         2630000.         30                    1.000         TR
       42         2630000.         30                    1.000         TR
       43         2630000.         30                    1.000         TR
       44         2630000.         30                    1.000         TR
       45         2630000.         30                    1.000         TR
       46         2630000.         30                    1.000         TR
       47         2630000.         30                    1.000         TR
       48         2630000.         30                    1.000         TR
       49         2630000.         30                    1.000         TR

 COMBINED STEADY-STATE AND TRANSIENT SIMULATION



 
 #Test Simulation 2-- Example problem using the UZF1 Package                     
 #Modified from example Problem 1 of SFR1 documentation report                   
 THE FREE FORMAT OPTION HAS BEEN SELECTED



                     BOUNDARY ARRAY FOR LAYER   1
 READING ON UNIT   75 WITH FORMAT: (20I4)              

                1           2           3           4           5           6           7           8           9          10
 ............................................................................................................................
   1            1           1           0           0           0           0           0           0           0           0
   2            1           1           1           0           0           1           1           1           0           0
   3            0           1           1           1           1           1           1           1           0           0
   4            1           1           1           1           1           1           1           1           1           0
   5            1           1           1           1           1           1           1           1           1           1
   6            1           1           1           1           1           1           1           1           1           1
   7            1           1           1           1           1           1           1           1           1           0
   8            0           1           1           1           1           1           1           1           1           0
   9            0           1           1           1           1           1           1           1           1           0
  10            0           1           1           1           1           1           1           1           1           1
  11            0           1           1           1           1           1           1           1           1           0
  12            1           1           1           1           1           1           1           1           1           0
  13            1           1           1           1           1           1           1           1           1           0
  14            0           1           1           1           1           1           1           1           1           0
  15            0           0           1           1           1           1           0           0           0           0

 AQUIFER HEAD WILL BE SET TO   6999.0     AT ALL NO-FLOW NODES (IBOUND=0).



                       INITIAL HEAD FOR LAYER   1
 READING ON UNIT   75 WITH FORMAT: (10F8.0)            

            1           2           3           4           5           6           7           8           9          10
 ........................................................................................................................
   1    1093.       1089.       6999.       6999.       6999.       6999.       6999.       6999.       6999.       6999.    
   2    1090.       1087.       1081.       6999.       6999.       1072.       1071.       1071.       6999.       6999.    
   3    6999.       1079.       1078.       1074.       1072.       1071.       1069.       1068.       6999.       6999.    
   4    1069.       1071.       1070.       1067.       1065.       1064.       1064.       1066.       1066.       6999.    
   5    1065.       1064.       1063.       1062.       1061.       1061.       1060.       1062.       1066.       1068.    
   6    1060.       1058.       1057.       1056.       1056.       1057.       1057.       1059.       1062.       1066.    
   7    1056.       1053.       1052.       1051.       1051.       1052.       1053.       1055.       1056.       6999.    
   8    6999.       1046.       1046.       1046.       1046.       1046.       1048.       1050.       1050.       6999.    
   9    6999.       1039.       1039.       1039.       1040.       1041.       1042.       1043.       1044.       6999.    
  10    6999.       1031.       1032.       1033.       1034.       1035.       1037.       1038.       1039.       1042.    
  11    6999.       1021.       1023.       1027.       1029.       1030.       1032.       1034.       1036.       6999.    
  12    1001.       1009.       1015.       1020.       1023.       1026.       1029.       1030.       1034.       6999.    
  13    994.5      1000.0       1007.       1013.       1019.       1024.       1029.       1034.       1036.       6999.    
  14    6999.       1004.       1009.       1014.       1019.       1024.       1029.       1035.       1039.       6999.    
  15    6999.       6999.       1012.       1015.       1019.       1022.       6999.       6999.       6999.       6999.    

 OUTPUT CONTROL IS SPECIFIED ONLY AT TIME STEPS FOR WHICH OUTPUT IS DESIRED
 HEADS WILL BE SAVED WITH FORMAT: (10F10.3)           
 SAVED HEADS WILL BE LABELED
 COMPACT CELL-BY-CELL BUDGET FILES WILL BE WRITTEN
 HEAD PRINT FORMAT CODE IS   4    DRAWDOWN PRINT FORMAT CODE IS   0
 HEADS WILL BE SAVED ON UNIT   62    DRAWDOWNS WILL BE SAVED ON UNIT    0
 # NWT Input File
 # Test Problem 3 for MODFLOW-NWT
 #HEADTOL  FLUXTOL MAXITEROUT THICKFACT LINMETH IPRNWT IBOTAV OPTIONS DBDREDUCE DBDINCREASE DBDGAMMA MOMFACT BACKFLAG MAXBACKITER BACKTOL BACKREDUCE

 NWT1 -- Newton Solver, VERSION 1.1.4, 4/01/2018
         INPUT READ FROM UNIT 13

 SPECIFIED OPTION:
 SOLVER INPUT VALUES ARE SPECIFIED BY USER
 ***XMD linear solver will be used***
 
   CONVERGENCE CRITERION OF   0.100000E-03 FOR HEAD SOLUTION
   AND A TOLERANCE OF   0.100000E+01 FOR FLOW SOLUTION AND 
   A MAXIMUM OF   500 OUTER ITERATIONS. 


   D-B-D REDUCTION FACTOR OF    0.970000E+00 AND 
   A D-B-D INCREASE FACTOR OF    0.100000E-04 AND 
   A D-B-D RELAXATION OF    0.000000E+00 AND 
   A MOMENTUM FACTOR OF    0.100000E+00 .


 ***BACKTRACKING IS INACTIVE***
 XMD -- LINEAR SOLUTION BY XMD PACKAGE VERSION 1.30
     BY MOTOMU IBARAKI, OHIO STATE UNIVERSITY, COLOMBUS, OH
                 INPUT READ FROM UNIT 13
 ACCELERATION METHOD                    (IACL) =         1
 NODE ORDERING FLAG                   (NORDER) =         0
 LEVEL OF FILL                         (LEVEL) =         7
 MAXIMUM NUMBER OF ORTHOGONALIZATIONS  (NORTH) =         7
 INDEX FOR USING REDUCED SYSTEM      (IREDSYS) =         1
 RESID. REDUCTION CONVERGE CRITERION  (RRCTOL) =  0.000000E+00
 INDEX FOR USING DROP TOLERANCE     (IDROPTOL) =         1
 DROP TOLERANCE VALUE                  (EPSRN) =  0.500000E-02
 CONVERGENCE CRITERIA OF           (HCLOSEXMD) =  0.100000E-03
 MAX. NUMBER OF LINEAR ITERATIONS  (MXITERXMD) =        50


 UPW1 -- UPSTREAM WEIGHTING FLOW PACKAGE, VERSION 1.1.4, 4/01/2018
         INPUT READ FROM UNIT  7

 #Layer-Property Flow Package input for test simulation 2
 CELL-BY-CELL FLOWS WILL BE SAVED ON UNIT  102
 No named parameters

   LAYER FLAGS:
 LAYER       LAYTYP          LAYAVG    CHANI           LAYVKA           LAYWET
 ---------------------------------------------------------------------------
    1             1             0     1.000E+00             0             0

   INTERPRETATION OF LAYER FLAGS:
                        INTERBLOCK     HORIZONTAL    DATA IN
         LAYER TYPE   TRANSMISSIVITY   ANISOTROPY   ARRAY VKA   WETTABILITY
 LAYER   (LAYTYP)        (LAYAVG)      (CHANI)     (LAYVKA)       (LAYWET)
 ---------------------------------------------------------------------------
    1   CONVERTIBLE      HARMONIC     1.000E+00    VERTICAL K  NON-WETTABLE



              HYD. COND. ALONG ROWS FOR LAYER   1
 READING ON UNIT    7 WITH FORMAT: (10F5.0)            

            1           2           3           4           5           6           7           8           9          10
 ........................................................................................................................
   1   2.0000E-03  2.0000E-03   0.000       0.000       0.000       0.000       0.000       0.000       0.000       0.000    
   2   4.0000E-04  2.0000E-03  2.0000E-03   0.000       0.000      4.0000E-04  4.0000E-04  4.0000E-04   0.000       0.000    
   3    0.000      4.0000E-04  2.0000E-03  2.0000E-03  4.0000E-04  4.0000E-04  4.0000E-04  4.0000E-04   0.000       0.000    
   4   4.0000E-04  4.0000E-04  4.0000E-04  2.0000E-03  2.0000E-03  2.0000E-03  4.0000E-04  4.0000E-04  4.0000E-04   0.000    
   5   4.0000E-04  4.0000E-04  4.0000E-04  2.0000E-03  2.0000E-03  2.0000E-03  2.0000E-03  2.0000E-03  2.0000E-03  2.0000E-03
   6   4.0000E-04  4.0000E-04  4.0000E-04  2.0000E-03  2.0000E-03  2.0000E-03  2.0000E-03  2.0000E-03  4.0000E-04  4.0000E-04
   7   4.0000E-04  4.0000E-04  4.0000E-04  2.0000E-03  2.0000E-03  2.0000E-03  2.0000E-03  2.0000E-03  4.0000E-04   0.000    
   8    0.000      4.0000E-04  4.0000E-04  2.0000E-03  2.0000E-03  2.0000E-03  2.0000E-03  4.0000E-04  4.0000E-04   0.000    
   9    0.000      4.0000E-04  4.0000E-04  2.0000E-03  2.0000E-03  2.0000E-03  2.0000E-03  4.0000E-04  4.0000E-04   0.000    
  10    0.000      4.0000E-04  4.0000E-04  2.0000E-03  2.0000E-03  2.0000E-03  2.0000E-03  4.0000E-04  4.0000E-04  4.0000E-04
  11    0.000      4.0000E-04  4.0000E-04  2.0000E-03  2.0000E-03  2.0000E-03  2.0000E-03  4.0000E-04  4.0000E-04   0.000    
  12   4.0000E-04  4.0000E-04  2.0000E-03  2.0000E-03  2.0000E-03  2.0000E-03  2.0000E-03  4.0000E-04  4.0000E-04   0.000    
  13   2.0000E-03  2.0000E-03  2.0000E-03  2.0000E-03  2.0000E-03  2.0000E-03  2.0000E-03  2.0000E-03  2.0000E-03   0.000    
  14    0.000      4.0000E-04  4.0000E-04  4.0000E-04  4.0000E-04  4.0000E-04  4.0000E-04  4.0000E-04  2.0000E-03   0.000    
  15    0.000       0.000      4.0000E-04  4.0000E-04  4.0000E-04  4.0000E-04   0.000       0.000       0.000       0.000    

      VERTICAL HYD. COND. =  1.000000E-06 FOR LAYER   1

         SPECIFIC STORAGE =  1.000000E-06 FOR LAYER   1



                     SPECIFIC YIELD FOR LAYER   1
 READING ON UNIT    7 WITH FORMAT: (10F5.0)            

            1           2           3           4           5           6           7           8           9          10
 ........................................................................................................................
   1   0.2000      0.2000       0.000       0.000       0.000       0.000       0.000       0.000       0.000       0.000    
   2   0.1000      0.2000      0.2000       0.000       0.000      0.1000      0.1000      0.1000       0.000       0.000    
   3    0.000      0.1000      0.2000      0.2000      0.1000      0.1000      0.1000      0.1000       0.000       0.000    
   4   0.1000      0.1000      0.1000      0.2000      0.2000      0.2000      0.1000      0.1000      0.1000       0.000    
   5   0.1000      0.1000      0.1000      0.2000      0.2000      0.2000      0.2000      0.2000      0.2000      0.2000    
   6   0.1000      0.1000      0.1000      0.2000      0.2000      0.2000      0.2000      0.2000      0.1000      0.1000    
   7   0.1000      0.1000      0.1000      0.2000      0.2000      0.2000      0.2000      0.2000      0.1000       0.000    
   8    0.000      0.1000      0.1000      0.2000      0.2000      0.2000      0.2000      0.1000      0.1000       0.000    
   9    0.000      0.1000      0.1000      0.2000      0.2000      0.2000      0.2000      0.1000      0.1000       0.000    
  10    0.000      0.1000      0.1000      0.2000      0.2000      0.2000      0.2000      0.1000      0.1000      0.1000    
  11    0.000      0.1000      0.1000      0.2000      0.2000      0.2000      0.2000      0.1000      0.1000       0.000    
  12   0.1000      0.1000      0.2000      0.2000      0.2000      0.2000      0.2000      0.1000      0.1000       0.000    
  13   0.2000      0.2000      0.2000      0.2000      0.2000      0.2000      0.2000      0.2000      0.2000       0.000    
  14    0.000      0.1000      0.1000      0.1000      0.1000      0.1000      0.1000      0.1000      0.2000       0.000    
  15    0.000       0.000      0.1000      0.1000      0.1000      0.1000       0.000       0.000       0.000       0.000    

 GHB -- GENERAL-HEAD BOUNDARY PACKAGE, VERSION 7, 5/2/2005
         INPUT READ FROM UNIT   17
 No named parameters
 MAXIMUM OF      2 ACTIVE GHB CELLS AT ONE TIME
 CELL-BY-CELL FLOWS WILL BE PRINTED WHEN ICBCFL NOT 0


     0 GHB parameters

 SFR7 -- STREAMFLOW ROUTING PACKAGE, VERSION 1.0.5, 2012-04-05
         INPUT READ FROM UNIT  15
 #SFR2 Package input for Testing supplimental pumping and irrigation
 No named parameters

 PROCESSING SFR2 OPTIONS
 
          2 Specified inflow files will be read with a maximum of       1446 row entries per file
 
Stream loss will be calculated as a factor of the streambed hydraulic conductivity. Multiplication factor is equal to     0.1000000015E+00

 END PROCESSING SFR2 OPTIONS
 


 NUMBER OF STREAM REACHES IS   38

 NUMBER OF STREAM SEGMENTS IS    9

 NUMBER OF STREAM PARAMETERS IS    0

 NUMBER OF STREAM SEGMENTS DEFINED USING PARAMETERS IS              0

 MAXIMUM ERROR FOR STREAM LEAKAGE RATES IS  1.00E-06

 CONSTANT FOR MANNINGS EQUATION IS  1.4860E+00



 STREAM OUTPUT WILL BE WRITTEN TO FILE ON UNIT   81


   STREAM NETWORK DESCRIPTION: 

   LAYER    ROW    COL   SEGMENT   REACH     LENGTH
                          NUMBER   NUMBER    IN CELL        
   --------------------------------------------------
      1      1      1       1        1    4.5000E+03
      1      2      2       1        2    7.0000E+03
      1      3      3       1        3    6.0000E+03
      1      3      4       1        4    5.5500E+03
      1      4      5       2        1    6.5000E+03
      1      5      6       2        2    5.0000E+03
      1      6      6       2        3    5.0000E+03
      1      7      6       2        4    5.0000E+03
      1      8      6       2        5    5.0000E+03
      1      3      5       3        1    5.0000E+03
      1      3      6       3        2    5.0000E+03
      1      3      7       3        3    4.5000E+03
      1      4      8       3        4    6.0000E+03
      1      5      8       3        5    5.0000E+03
      1      6      8       3        6    2.0000E+03
      1      5     10       4        1    2.5000E+03
      1      5      9       4        2    5.0000E+03
      1      6      8       4        3    3.5000E+03
      1      6      8       5        1    4.0000E+03
      1      7      7       5        2    5.0000E+03
      1      8      7       5        3    3.5000E+03
      1      8      6       5        4    2.5000E+03
      1      9      6       6        1    5.0000E+03
      1     10      7       6        2    5.0000E+03
      1     11      7       6        3    5.0000E+03
      1     12      7       6        4    5.0000E+03
      1     13      7       6        5    2.0000E+03
      1     14      9       7        1    5.0000E+03
      1     13      8       7        2    5.5000E+03
      1     13      7       7        3    5.0000E+03
      1     13      6       8        1    5.0000E+03
      1     13      5       8        2    5.0000E+03
      1     13      4       8        3    5.0000E+03
      1     13      3       8        4    5.0000E+03
      1     13      2       8        5    5.0000E+03
      1     13      1       8        6    3.0000E+03
      1      8      6       9        1    3.0000E+03
      1      8      5       9        2    3.0000E+03




 UZF1 -- UNSATURATED FLOW PACKAGE, VERSION 1.5, 09/10/2019
         INPUT READ FROM UNIT 19
 #UZF Package input for test simulation 2
 No named parameters

 PROCESSING UZF OPTIONS
 
 
 INITIAL WATER CONTENT (THTI) WILL BE 
READ FOR THE FIRST SS OR TR STRESS PERIOD
 
 
 RESIDUAL WATER CONTENT (THTR) WILL BE 
READ AND USED FOR THE FIRST TRANSIENT STRESS 
PERIOD
 
 
AIR ENTRY PRESSURE AND ROOT PRESSURE WILL BE 
SPECIFIED BY USER AND UZ ET WILL BE SIMULATED 
AS PRESSURE-HEAD DEPENDENT
 
 
INFILTRATION WILL BE REJECTED USING 
LAND SURFACE K
 
 
HYDRAULIC CONDUCTIVITY OF LAND SURFACE 
WILL BE READ
 

 END PROCESSING UZF OPTIONS



            AREAL EXTENT OF UZ FLOW
 READING ON UNIT   19 WITH FORMAT: (20I4)              

                1           2           3           4           5           6           7           8           9          10
 ............................................................................................................................
   1            1           1           0           0           0           0           0           0           0           0
   2            1           1           1           0           0           1           1           1           0           0
   3            0           1           1           1           1           1           1           1           0           0
   4            1           1           1           1           1           1           1           1           1           0
   5            1           1           1           1           1           1           1           1           1           1
   6            1           1           1           1           1           1           1           1           1           1
   7            1           1           1           1           1           1           1           1           1           0
   8            0           1           1           1           1           1           1           1           1           0
   9            0           1           1           1           1           1           1           1           1           0
  10            0           1           1           1           1           1           1           1           1           1
  11            0           1           1           1           1           1           1           1           1           0
  12            1           1           1           1           1           1           1           1           1           0
  13            1           1           1           1           1           1           1           1           1           0
  14            0           1           1           1           1           1           1           1           1           0
  15            0           0           1           1           1           1           0           0           0           0
 OPTION 1 -- RECHARGE IN UZF TO TOP LAYER ONLY 



            ROUTING OVERLAND RUNOFF
 READING ON UNIT   19 WITH FORMAT: (20I4)              

                1           2           3           4           5           6           7           8           9          10
 ............................................................................................................................
   1            1           1           0           0           0           0           0           0           0           0
   2            1           1           1           0           0           3           3           3           0           0
   3            0           1           1           1           3           3           3           3           0           0
   4            8           8           2           2           2           2           2           3           3           0
   5            8           8           8           8           2           2           2           3           4           4
   6            8           8           8           8           8           2           2           4           4           4
   7            8           8           8           8           8           2           5           5           5           0
   8            0           8           8           8           8           2           5           5           5           0
   9            0           8           8           8           8           6           6           6           6           0
  10            0           8           8           8           8           6           6           6           6           6
  11            0           8           8           8           8           8           6           6           7           0
  12            8           8           8           8           8           8           6           7           7           0
  13            8           8           8           8           8           8           7           7           7           0
  14            0           8           8           8           8           8           7           7           7           0
  15            0           0           8           8           8           8           0           0           0           0



               SATURATED VERTICAL K
 READING ON UNIT   19 WITH FORMAT: (10F4.0)            

            1           2           3           4           5           6           7           8           9          10
 ........................................................................................................................
   1   4.6000E-05  4.6000E-05   0.000       0.000       0.000       0.000       0.000       0.000       0.000       0.000    
   2   4.6000E-05  4.6000E-05  4.6000E-05   0.000       0.000      4.6000E-05  4.6000E-05  4.6000E-05   0.000       0.000    
   3    0.000      4.6000E-05  4.6000E-05  4.6000E-05  4.6000E-05  4.6000E-05  4.6000E-05  4.6000E-05   0.000       0.000    
   4   4.6000E-05  4.6000E-05  4.6000E-05  4.6000E-05  4.6000E-05  4.6000E-05  4.6000E-05  4.6000E-05  4.6000E-05   0.000    
   5   4.6000E-05  4.6000E-05  4.6000E-05  4.6000E-05  4.6000E-05  4.6000E-05  4.6000E-05  4.6000E-05  4.6000E-05  4.6000E-05
   6   4.6000E-05  4.6000E-05  4.6000E-05  4.6000E-05  4.6000E-05  4.6000E-05  4.6000E-05  4.6000E-05  4.6000E-05  4.6000E-05
   7   4.6000E-05  4.6000E-05  4.6000E-05  4.6000E-05  4.6000E-05  4.6000E-05  4.6000E-05  4.6000E-05  4.6000E-05   0.000    
   8    0.000      4.6000E-05  4.6000E-05  4.6000E-05  4.6000E-05  4.6000E-05  4.6000E-05  4.6000E-05  4.6000E-05   0.000    
   9    0.000      4.6000E-05  4.6000E-05  4.6000E-05  4.6000E-05  4.6000E-05  4.6000E-05  4.6000E-05  4.6000E-05   0.000    
  10    0.000      4.6000E-05  4.6000E-05  4.6000E-05  4.6000E-05  4.6000E-05  4.6000E-05  4.6000E-05  4.6000E-05  4.6000E-05
  11    0.000      4.6000E-05  4.6000E-05  4.6000E-05  4.6000E-05  4.6000E-05  4.6000E-05  4.6000E-05  4.6000E-05   0.000    
  12   4.6000E-05  4.6000E-05  4.6000E-05  4.6000E-05  4.6000E-05  4.6000E-05  4.6000E-05  4.6000E-05  4.6000E-05   0.000    
  13   4.6000E-05  4.6000E-05  4.6000E-05  4.6000E-05  4.6000E-05  4.6000E-05  4.6000E-05  4.6000E-05  4.6000E-05   0.000    
  14    0.000      4.6000E-05  4.6000E-05  4.6000E-05  4.6000E-05  4.6000E-05  4.6000E-05  4.6000E-05  4.6000E-05   0.000    
  15    0.000       0.000      4.6000E-05  4.6000E-05  4.6000E-05  4.6000E-05   0.000       0.000       0.000       0.000    



            LAND SURFACE VERTICAL K
 READING ON UNIT   19 WITH FORMAT: (10F4.0)            

            1           2           3           4           5           6           7           8           9          10
 ........................................................................................................................
   1   1.0000E-05  1.0000E-05   0.000       0.000       0.000       0.000       0.000       0.000       0.000       0.000    
   2   1.0000E-05  1.0000E-05  1.0000E-05   0.000       0.000      1.0000E-05  1.0000E-05  1.0000E-05   0.000       0.000    
   3    0.000      1.0000E-05  1.0000E-05  1.0000E-05  1.0000E-05  1.0000E-05  1.0000E-05  1.0000E-05   0.000       0.000    
   4   1.0000E-05  1.0000E-05  1.0000E-05  1.0000E-05  1.0000E-05  1.0000E-05  1.0000E-05  1.0000E-05  1.0000E-05   0.000    
   5   1.0000E-05  1.0000E-05  1.0000E-05  1.0000E-05  1.0000E-05  1.0000E-05  1.0000E-05  1.0000E-05  1.0000E-05  1.0000E-05
   6   1.0000E-05  1.0000E-05  1.0000E-05  1.0000E-05  1.0000E-05  1.0000E-05  1.0000E-05  1.0000E-05  1.0000E-05  1.0000E-05
   7   1.0000E-05  1.0000E-05  1.0000E-05  1.0000E-05  1.0000E-05  1.0000E-05  1.0000E-05  1.0000E-05  1.0000E-05   0.000    
   8    0.000      1.0000E-05  1.0000E-05  1.0000E-05  1.0000E-05  1.0000E-05  1.0000E-05  1.0000E-05  1.0000E-05   0.000    
   9    0.000      1.0000E-05  1.0000E-05  1.0000E-05  1.0000E-05  1.0000E-05  1.0000E-05  1.0000E-05  1.0000E-05   0.000    
  10    0.000      1.0000E-05  1.0000E-05  1.0000E-05  1.0000E-05  1.0000E-05  1.0000E-05  1.0000E-05  1.0000E-05  1.0000E-05
  11    0.000      1.0000E-05  1.0000E-05  1.0000E-05  1.0000E-05  1.0000E-05  1.0000E-05  1.0000E-05  1.0000E-05   0.000    
  12   1.0000E-05  1.0000E-05  1.0000E-05  1.0000E-05  1.0000E-05  1.0000E-05  1.0000E-05  1.0000E-05  1.0000E-05   0.000    
  13   1.0000E-05  1.0000E-05  1.0000E-05  1.0000E-05  1.0000E-05  1.0000E-05  1.0000E-05  1.0000E-05  1.0000E-05   0.000    
  14    0.000      1.0000E-05  1.0000E-05  1.0000E-05  1.0000E-05  1.0000E-05  1.0000E-05  1.0000E-05  1.0000E-05   0.000    
  15    0.000       0.000      1.0000E-05  1.0000E-05  1.0000E-05  1.0000E-05   0.000       0.000       0.000       0.000    

     BROOKS-COREY EPSILON =   7.50000    

  SATURATED WATER CONTENT =  0.380000    

   RESIDUAL WATER CONTENT =  0.200000    

    INITIAL WATER CONTENT =  0.200000    

UNSATURATED FLOW RESULTS WILL BE PRINTED TO SEPARATE FILES FOR SELECTED MODEL CELLS, AND TIME STEPS AS DEFINED BY OUTPUT CONTROL PACKAGE 

SELECTED MODEL CELLS ARE: 
 ROW NUMBER  COLUMN NUMBER  FORTRAN UNIT NUMBER  OUTPUT OPTION


       6             4                 65                 1
       6             5                 66                 2
       8             4                 67                 3
       0             0                 68                 4



   9 GAGING STATIONS WERE SPECIFIED.
     (Lakes are identified by a negative value of the Lake Number)
     RECORDS WILL BE WRITTEN TO SEPARATE OUTPUT FILES REPRESENTED BY FOLLOWING UNIT NUMBERS:

 Stream Gages:
  GAGE #   SEGMENT   REACH   UNIT   OUTTYPE
       1       1       4      83       1
       2       2       5      84       1
       3       3       5      85       1
       4       4       3      86       1
       5       5       4      87       4
       6       6       5      88       4
       7       7       3      89       4
       8       8       6      90       4
       9       9       1      91       5





 AG -- AG PACKAGE FOR NWT VERSION 1.1.3,  8/01/2017 INPUT READ FROM UNIT   57
 # AG options

 PROCESSING AG OPTIONS
 
 AGRICULTURAL DEMANDS WILL BE CALCULATED USING ET DEFICIT
 
 
 OPTION TO APPLY SURFACE WATER AS IRRIGATION IS ACTIVE. DIVERTED SURFACE WATER WILL BE APPLIED TO          1 CELLS/RHUS.
 
 
 OPTION TO PUMP SUPPLEMENTARY WATER FOR SURFACE DIVERSION SHORTFALL IS ACTIVATED.  A TOTAL OF             6 SUPPLEMENTAL WELLS ARE ACTIVE
 
 
 OPTION TO APPLY PUMPED WATER AS IRRIGATION IS ACTIVE. PUMPED IRRIGATION WATER WILL BE APPLIED TO          6 CELLS/RHUS.
 
 
 THE MAXIMUM NUMBER OF WELLS FOR SUPPLEMENTING DIVERSIONS OR APPLYING IRRIGATION IS          6 WELLS.
 
 
  UNFORMATTED CELL BY CELL RATES FOR SUP AND IRR WELLS WILL BE SAVED TO FILE UNIT NUMBER         -2
 
 
  UNFORMATTED CELL BY CELL RATES FOR SUP AND IRR WELLS WILL BE SAVED TO FILE UNIT NUMBER         -2
 
 
  UNFORMATTED CELL BY CELL RATES FOR SUP AND IRR WELLS WILL BE SAVED TO FILE UNIT NUMBER         -2
 
 
  UNFORMATTED CELL BY CELL RATES FOR SUP AND IRR WELLS WILL BE SAVED TO FILE UNIT NUMBER         -2
 
 
  GROUND WATER IRRIGATION, POTENTIAL AND ACTUAL ET WILL BE SAVED TO TIMES SERIES OUTPUT FILES.
 
 
  SURFACE WATER IRRIGATION, POTENTIAL AND ACTUAL ET WILL BE SAVED TO TIMES SERIES OUTPUT FILES.
 
 
  SURFACE WATER IRRIGATION, POTENTIAL AND ACTUAL ET WILL BE SAVED TO TIMES SERIES OUTPUT FILES.
 

 END PROCESSING AG OPTIONS
 # AG time series

 PROCESSING TIME SERIES

 FINISHED READING TIME SERIES
 A total number of          1 AG output time series files were activated for SURFACE WATER 
 A total number of          1 AG output time series files were activated for GROUNDWATER 
 A total number of          1 AG output time series files were activated for SURFACE WATER ET
 A total number of          0 AG output time series files were activated for GROUNDWATER ET
1
                            STRESS PERIOD NO.    1, LENGTH =   86400.00    
                            -----------------------------------------------

                              NUMBER OF TIME STEPS =     1

                               MULTIPLIER FOR DELT =     1.000

                            INITIAL TIME STEP SIZE =   86400.00    

 BOUND. NO. LAYER   ROW   COL     STAGE      CONDUCTANCE         
 ----------------------------------------------------------------
      1      1     13      1       988.0          0.3800E-01
      2      1     14      9       1045.          0.3800E-01

      2 GHB CELLS



 CLASSIFICATION & COUNT OF STREAM SEGMENTS BASED ON SOURCE OF INFLOW:

                HEADWATER     DIVERSION     RECEIVES TRIBUTARY FLOW
                ---------     ---------     -----------------------
                     3              2               4



                    INPUT DATA FOR EACH STREAM SEGMENT
 ---------------------------------------------------------------------------------------------

 SEGMENT    SEG.     INFLOW   OVERLAND   STREAM    STREAM   ICALC  OUTFLOW  DIVERSION PRIORITY
    NO.    LENGTH     RATE     RUNOFF      ET       PPT.    METH.  TO SEG.  FROM SEG.    NO.

      1  2.305E+04 2.500E+01 0.000E+00 0.000E+00 0.000E+00    4        2        0        0
      2  2.650E+04 0.000E+00 0.000E+00 0.000E+00 0.000E+00    1        6        0        0
      3  2.750E+04 2.000E+00 0.000E+00 0.000E+00 0.000E+00    0        5        1        0
      4  1.100E+04 1.000E+01 0.000E+00 0.000E+00 0.000E+00    1        5        0        0
      5  1.500E+04 0.000E+00 0.000E+00 0.000E+00 0.000E+00    3        6        0        0
      6  2.200E+04 0.000E+00 0.000E+00 0.000E+00 0.000E+00    1        8        0        0
      7  1.550E+04 1.500E+02 0.000E+00 0.000E+00 0.000E+00    2        8        0        0
      8  2.800E+04 0.000E+00 0.000E+00 0.000E+00 0.000E+00    2        0        0        0
      9  6.000E+03 0.000E+00 0.000E+00 0.000E+00 0.000E+00    1        0        2        0


         STREAMBED PROPERTIES AND STREAM DIMENSIONS

 SEGMENT     BED HYD. COND.      BED THICKNESS     ELEV.-TOP OF BED     WIDTH OF STREAM     DEPTH OF STREAM    STREAM ROUGHNESS
    No.     UPPER     LOWER     UPPER     LOWER     UPPER     LOWER     UPPER     LOWER     UPPER     LOWER   CHANNEL      BANK

     1  3.000E-05 3.000E-05 3.000E+00 3.000E+00 1.095E+03 1.075E+03
     2  3.000E-05 3.000E-05 3.000E+00 3.000E+00 1.075E+03 1.050E+03 1.200E+01 1.200E+01                     3.000E-02
     3  3.000E-05 3.000E-05 2.000E+00 2.000E+00 1.075E+03 1.060E+03 1.000E+01 6.000E+00 2.000E+00 1.000E+00
     4  3.000E-05 3.000E-05 3.000E+00 3.000E+00 1.080E+03 1.060E+03 1.000E+01 1.000E+01                     3.000E-02
     5  3.000E-05 3.000E-05 3.000E+00 3.000E+00 1.060E+03 1.045E+03
     6  3.000E-05 3.000E-05 3.000E+00 3.000E+00 1.045E+03 1.025E+03 1.200E+01 1.200E+01                     3.000E-02
     7  6.000E-05 6.000E-05 3.000E+00 3.000E+00 1.040E+03 1.025E+03                                         2.500E-02 4.500E-02
     8  6.000E-05 6.000E-05 3.000E+00 3.000E+00 1.025E+03 9.900E+02                                         2.500E-02 4.500E-02
     9  0.000E+00 0.000E+00 3.000E+00 3.000E+00 1.079E+03 1.078E+03 4.000E+00 4.000E+00                     3.000E-02

  EIGHT POINT CROSS-SECTION DATA FOR SEGMENTS WITH ICALC = 2
    X VALUES X VALUES START FROM LEFT SIDE LOOKING DOWNSTREAM

     SEGMENT NO.        X1        X2        X3        X4        X5        X6        X7        X8
            7      0.000E+00 1.000E+01 8.000E+01 1.000E+02 1.500E+02 1.700E+02 2.400E+02 2.500E+02
            8      0.000E+00 1.000E+01 8.000E+01 1.000E+02 1.500E+02 1.700E+02 2.400E+02 2.500E+02

    Z VALUES ARE RELATIVE TO STREAMBED ELEVATION

     SEGMENT NO.          Z1        Z2        Z3        Z4        Z5        Z6        Z7        Z8
            7      2.000E+01 1.300E+01 1.000E+01 2.000E+00 0.000E+00 1.000E+01 1.300E+01 2.000E+01
            8      2.500E+01 1.700E+01 1.300E+01 4.000E+00 0.000E+00 1.000E+01 1.600E+01 2.000E+01

 STREAMFLOW RELATION WITH DEPTH IS BASED ON EQUATION Q = CDPTH*(DEPTH)**FDPTH
 STREAMFLOW RELATION WITH WIDTH IS BASED ON EQUATION Q = AWDTH*(WIDTH)**BWDTH

 SEGMENT NO.      CDPTH     FDPTH    AWDTH     BWDTH

          5 3.000E-01 3.500E-01 3.800E+00 6.000E-01

 STREAMFLOW RELATION WITH DEPTH AND WIDTH IS BASED ON TABULATED VALUES

  SEGMENT NO.   STREAMFLOW       DEPTH       WIDTH

          1     5.0000E-01   2.5000E-01   3.0000E+00
          1     1.0000E+00   4.0000E-01   3.5000E+00
          1     2.0000E+00   5.5000E-01   4.2000E+00
          1     4.0000E+00   7.0000E-01   5.3000E+00
          1     7.0000E+00   8.0000E-01   7.0000E+00
          1     1.0000E+01   9.0000E-01   8.5000E+00
          1     2.0000E+01   1.1000E+00   1.2000E+01
          1     3.0000E+01   1.2500E+00   1.4000E+01
          1     5.0000E+01   1.4000E+00   1.7000E+01
          1     7.5000E+01   1.7000E+00   2.0000E+01
          1     1.0000E+02   1.8000E+00   2.2000E+01



TABULAR INFLOWS WERE READ FOR SEGMENT      1
FROM FILE UNIT NUMBER     55

          TIMES                    INFLOWS
         0.0000000000E+00     0.1875000000E+01
         0.8640000000E+05     0.8250000000E+01
         0.2760000000E+07     0.1575000000E+02
         0.5270000000E+07     0.2887500000E+02
         0.7950000000E+07     0.1050000000E+02
         0.1050000000E+08     0.3712500000E+02
         0.1320000000E+08     0.3112500000E+02
         0.1580000000E+08     0.2812500000E+02
         0.1850000000E+08     0.2287500000E+02
         0.2120000000E+08     0.1762500000E+02
         0.2380000000E+08     0.1312500000E+02
         0.2640000000E+08     0.9750000000E+01
         0.2900000000E+08     0.8625000000E+01
         0.3170000000E+08     0.7125000000E+01
         0.3440000000E+08     0.7875000000E+01
         0.3680000000E+08     0.3675000000E+02
         0.3950000000E+08     0.2812500000E+02
         0.4210000000E+08     0.2362500000E+02
         0.4480000000E+08     0.2175000000E+02
         0.4730000000E+08     0.2025000000E+02
         0.5000000000E+08     0.1387500000E+02
         0.5270000000E+08     0.9375000000E+01
         0.5530000000E+08     0.8250000000E+01
         0.5800000000E+08     0.7875000000E+01
         0.6060000000E+08     0.7500000000E+01
         0.6320000000E+08     0.7125000000E+01
         0.6330000000E+08     0.8250000000E+01
         0.6600000000E+08     0.1575000000E+02
         0.6850000000E+08     0.2887500000E+02
         0.7120000000E+08     0.1050000000E+02
         0.7370000000E+08     0.3712500000E+02
         0.7640000000E+08     0.3112500000E+02
         0.7900000000E+08     0.2812500000E+02
         0.8170000000E+08     0.2287500000E+02
         0.8440000000E+08     0.1762500000E+02
         0.8700000000E+08     0.1312500000E+02
         0.8960000000E+08     0.9750000000E+01
         0.9220000000E+08     0.8625000000E+01
         0.9490000000E+08     0.7125000000E+01
         0.9760000000E+08     0.7875000000E+01
         0.1000000000E+09     0.3675000000E+02
         0.1030000000E+09     0.2812500000E+02
         0.1050000000E+09     0.2362500000E+02
         0.1080000000E+09     0.2175000000E+02
         0.1110000000E+09     0.2025000000E+02
         0.1130000000E+09     0.1387500000E+02
         0.1160000000E+09     0.9375000000E+01
         0.1190000000E+09     0.8250000000E+01
         0.1210000000E+09     0.7875000000E+01
         0.1240000000E+09     0.7500000000E+01
         0.1260000000E+09     0.7125000000E+01
TABULAR INFLOWS WERE READ FOR SEGMENT      9
FROM FILE UNIT NUMBER     56

          TIMES                    INFLOWS
         0.0000000000E+00     0.1000000000E+03
         0.8640000000E+05     0.1000000000E+03
         0.1730000000E+06     0.1000000000E+03
         0.2590000000E+06     0.1000000000E+03
         0.3460000000E+06     0.1000000000E+03
         0.4320000000E+06     0.1000000000E+03
         0.5180000000E+06     0.1000000000E+03
         0.6050000000E+06     0.1000000000E+03
         0.6910000000E+06     0.1000000000E+03
         0.7780000000E+06     0.1000000000E+03
         0.8640000000E+06     0.1000000000E+03
         0.9500000000E+06     0.1000000000E+03
         0.1040000000E+07     0.1000000000E+03
         0.1120000000E+07     0.1000000000E+03
         0.1210000000E+07     0.1000000000E+03
         0.1300000000E+07     0.1000000000E+03
         0.1380000000E+07     0.1000000000E+03
         0.1470000000E+07     0.1000000000E+03
         0.1560000000E+07     0.1000000000E+03
         0.1640000000E+07     0.1000000000E+03
         0.1730000000E+07     0.1000000000E+03
         0.1810000000E+07     0.1000000000E+03
         0.1900000000E+07     0.1000000000E+03
         0.1990000000E+07     0.1000000000E+03
         0.2070000000E+07     0.1000000000E+03
         0.2160000000E+07     0.1000000000E+03
         0.2250000000E+07     0.1000000000E+03
         0.2330000000E+07     0.1000000000E+03
         0.2420000000E+07     0.1000000000E+03
         0.2510000000E+07     0.1000000000E+03
         0.2590000000E+07     0.1000000000E+03
         0.2680000000E+07     0.1000000000E+03
         0.2760000000E+07     0.1000000000E+03
         0.2850000000E+07     0.1000000000E+03
         0.2940000000E+07     0.1000000000E+03
         0.3020000000E+07     0.1000000000E+03
         0.3110000000E+07     0.1000000000E+03
         0.3200000000E+07     0.1000000000E+03
         0.3280000000E+07     0.1000000000E+03
         0.3370000000E+07     0.1000000000E+03
         0.3460000000E+07     0.1000000000E+03
         0.3540000000E+07     0.1000000000E+03
         0.3630000000E+07     0.1000000000E+03
         0.3720000000E+07     0.1000000000E+03
         0.3800000000E+07     0.1000000000E+03
         0.3890000000E+07     0.1000000000E+03
         0.3970000000E+07     0.1000000000E+03
         0.4060000000E+07     0.1000000000E+03
         0.4150000000E+07     0.1000000000E+03
         0.4230000000E+07     0.1000000000E+03
         0.4320000000E+07     0.1000000000E+03
         0.4410000000E+07     0.1000000000E+03
         0.4490000000E+07     0.1000000000E+03
         0.4580000000E+07     0.1000000000E+03
         0.4670000000E+07     0.1000000000E+03
         0.4750000000E+07     0.1000000000E+03
         0.4840000000E+07     0.1000000000E+03
         0.4920000000E+07     0.1000000000E+03
         0.5010000000E+07     0.1000000000E+03
         0.5100000000E+07     0.1000000000E+03
         0.5180000000E+07     0.1000000000E+03
         0.5270000000E+07     0.1000000000E+03
         0.5360000000E+07     0.1000000000E+03
         0.5440000000E+07     0.1000000000E+03
         0.5530000000E+07     0.1000000000E+03
         0.5620000000E+07     0.1000000000E+03
         0.5700000000E+07     0.1000000000E+03
         0.5790000000E+07     0.1000000000E+03
         0.5880000000E+07     0.1000000000E+03
         0.5960000000E+07     0.1000000000E+03
         0.6050000000E+07     0.1000000000E+03
         0.6130000000E+07     0.1000000000E+03
         0.6220000000E+07     0.1000000000E+03
         0.6310000000E+07     0.1000000000E+03
         0.6390000000E+07     0.1000000000E+03
         0.6480000000E+07     0.1000000000E+03
         0.6570000000E+07     0.1000000000E+03
         0.6650000000E+07     0.1000000000E+03
         0.6740000000E+07     0.1000000000E+03
         0.6830000000E+07     0.1000000000E+03
         0.6910000000E+07     0.1000000000E+03
         0.7000000000E+07     0.1000000000E+03
         0.7080000000E+07     0.1000000000E+03
         0.7170000000E+07     0.1000000000E+03
         0.7260000000E+07     0.1000000000E+03
         0.7340000000E+07     0.1000000000E+03
         0.7430000000E+07     0.1000000000E+03
         0.7520000000E+07     0.1000000000E+03
         0.7600000000E+07     0.1000000000E+03
         0.7690000000E+07     0.1000000000E+03
         0.7780000000E+07     0.1000000000E+03
         0.7860000000E+07     0.1000000000E+03
         0.7950000000E+07     0.1000000000E+03
         0.8040000000E+07     0.1000000000E+03
         0.8120000000E+07     0.1000000000E+03
         0.8210000000E+07     0.1000000000E+03
         0.8290000000E+07     0.1000000000E+03
         0.8380000000E+07     0.1000000000E+03
         0.8470000000E+07     0.1000000000E+03
         0.8550000000E+07     0.1000000000E+03
         0.8640000000E+07     0.1000000000E+03
         0.8730000000E+07     0.1000000000E+03
         0.8810000000E+07     0.1000000000E+03
         0.8900000000E+07     0.1000000000E+03
         0.8990000000E+07     0.1000000000E+03
         0.9070000000E+07     0.1000000000E+03
         0.9160000000E+07     0.1000000000E+03
         0.9240000000E+07     0.1000000000E+03
         0.9330000000E+07     0.1000000000E+03
         0.9420000000E+07     0.1000000000E+03
         0.9500000000E+07     0.1000000000E+03
         0.9590000000E+07     0.1000000000E+03
         0.9680000000E+07     0.1000000000E+03
         0.9760000000E+07     0.1000000000E+03
         0.9850000000E+07     0.1000000000E+03
         0.9940000000E+07     0.1000000000E+03
         0.1000000000E+08     0.1000000000E+03
         0.1010000000E+08     0.1000000000E+03
         0.1020000000E+08     0.1000000000E+03
         0.1030000000E+08     0.1000000000E+03
         0.1040000000E+08     0.1000000000E+03
         0.1050000000E+08     0.1000000000E+03
         0.1050000000E+08     0.1000000000E+03
         0.1060000000E+08     0.1000000000E+03
         0.1070000000E+08     0.1000000000E+03
         0.1080000000E+08     0.1000000000E+03
         0.1090000000E+08     0.1000000000E+03
         0.1100000000E+08     0.1000000000E+03
         0.1110000000E+08     0.1000000000E+03
         0.1110000000E+08     0.1000000000E+03
         0.1120000000E+08     0.1000000000E+03
         0.1130000000E+08     0.1000000000E+03
         0.1140000000E+08     0.1000000000E+03
         0.1150000000E+08     0.1000000000E+03
         0.1160000000E+08     0.1000000000E+03
         0.1170000000E+08     0.1000000000E+03
         0.1180000000E+08     0.1000000000E+03
         0.1180000000E+08     0.1000000000E+03
         0.1190000000E+08     0.1000000000E+03
         0.1200000000E+08     0.1000000000E+03
         0.1210000000E+08     0.1000000000E+03
         0.1220000000E+08     0.1000000000E+03
         0.1230000000E+08     0.1000000000E+03
         0.1240000000E+08     0.1000000000E+03
         0.1240000000E+08     0.1000000000E+03
         0.1250000000E+08     0.1000000000E+03
         0.1260000000E+08     0.1000000000E+03
         0.1270000000E+08     0.1000000000E+03
         0.1280000000E+08     0.1000000000E+03
         0.1290000000E+08     0.1000000000E+03
         0.1300000000E+08     0.1000000000E+03
         0.1300000000E+08     0.1000000000E+03
         0.1310000000E+08     0.1000000000E+03
         0.1320000000E+08     0.1000000000E+03
         0.1330000000E+08     0.1000000000E+03
         0.1340000000E+08     0.1000000000E+03
         0.1350000000E+08     0.1000000000E+03
         0.1360000000E+08     0.1000000000E+03
         0.1370000000E+08     0.1000000000E+03
         0.1370000000E+08     0.1000000000E+03
         0.1380000000E+08     0.1000000000E+03
         0.1390000000E+08     0.1000000000E+03
         0.1400000000E+08     0.1000000000E+03
         0.1410000000E+08     0.1000000000E+03
         0.1420000000E+08     0.1000000000E+03
         0.1430000000E+08     0.1000000000E+03
         0.1430000000E+08     0.1000000000E+03
         0.1440000000E+08     0.1000000000E+03
         0.1450000000E+08     0.1000000000E+03
         0.1460000000E+08     0.1000000000E+03
         0.1470000000E+08     0.1000000000E+03
         0.1480000000E+08     0.1000000000E+03
         0.1490000000E+08     0.1000000000E+03
         0.1490000000E+08     0.1000000000E+03
         0.1500000000E+08     0.1000000000E+03
         0.1510000000E+08     0.1000000000E+03
         0.1520000000E+08     0.1000000000E+03
         0.1530000000E+08     0.1000000000E+03
         0.1540000000E+08     0.1000000000E+03
         0.1550000000E+08     0.1000000000E+03
         0.1560000000E+08     0.1000000000E+03
         0.1560000000E+08     0.1000000000E+03
         0.1570000000E+08     0.1000000000E+03
         0.1580000000E+08     0.1000000000E+03
         0.1590000000E+08     0.1000000000E+03
         0.1600000000E+08     0.1000000000E+03
         0.1610000000E+08     0.1000000000E+03
         0.1620000000E+08     0.1000000000E+03
         0.1620000000E+08     0.1000000000E+03
         0.1630000000E+08     0.1000000000E+03
         0.1640000000E+08     0.1000000000E+03
         0.1650000000E+08     0.1000000000E+03
         0.1660000000E+08     0.1000000000E+03
         0.1670000000E+08     0.1000000000E+03
         0.1680000000E+08     0.1000000000E+03
         0.1680000000E+08     0.1000000000E+03
         0.1690000000E+08     0.1000000000E+03
         0.1700000000E+08     0.1000000000E+03
         0.1710000000E+08     0.1000000000E+03
         0.1720000000E+08     0.1000000000E+03
         0.1730000000E+08     0.1000000000E+03
         0.1740000000E+08     0.1000000000E+03
         0.1750000000E+08     0.1000000000E+03
         0.1750000000E+08     0.1000000000E+03
         0.1760000000E+08     0.1000000000E+03
         0.1770000000E+08     0.1000000000E+03
         0.1780000000E+08     0.1000000000E+03
         0.1790000000E+08     0.1000000000E+03
         0.1800000000E+08     0.1000000000E+03
         0.1810000000E+08     0.1000000000E+03
         0.1810000000E+08     0.1000000000E+03
         0.1820000000E+08     0.1000000000E+03
         0.1830000000E+08     0.1000000000E+03
         0.1840000000E+08     0.1000000000E+03
         0.1850000000E+08     0.1000000000E+03
         0.1860000000E+08     0.1000000000E+03
         0.1870000000E+08     0.1000000000E+03
         0.1870000000E+08     0.1000000000E+03
         0.1880000000E+08     0.1000000000E+03
         0.1890000000E+08     0.1000000000E+03
         0.1900000000E+08     0.1000000000E+03
         0.1910000000E+08     0.1000000000E+03
         0.1920000000E+08     0.1000000000E+03
         0.1930000000E+08     0.1000000000E+03
         0.1940000000E+08     0.1000000000E+03
         0.1940000000E+08     0.1000000000E+03
         0.1950000000E+08     0.1000000000E+03
         0.1960000000E+08     0.1000000000E+03
         0.1970000000E+08     0.1000000000E+03
         0.1980000000E+08     0.1000000000E+03
         0.1990000000E+08     0.1000000000E+03
         0.2000000000E+08     0.1000000000E+03
         0.2000000000E+08     0.1000000000E+03
         0.2010000000E+08     0.1000000000E+03
         0.2020000000E+08     0.1000000000E+03
         0.2030000000E+08     0.1000000000E+03
         0.2040000000E+08     0.1000000000E+03
         0.2050000000E+08     0.1000000000E+03
         0.2060000000E+08     0.1000000000E+03
         0.2070000000E+08     0.1000000000E+03
         0.2070000000E+08     0.1000000000E+03
         0.2080000000E+08     0.1000000000E+03
         0.2090000000E+08     0.1000000000E+03
         0.2100000000E+08     0.1000000000E+03
         0.2110000000E+08     0.1000000000E+03
         0.2120000000E+08     0.1000000000E+03
         0.2130000000E+08     0.1000000000E+03
         0.2130000000E+08     0.1000000000E+03
         0.2140000000E+08     0.1000000000E+03
         0.2150000000E+08     0.1000000000E+03
         0.2160000000E+08     0.1000000000E+03
         0.2170000000E+08     0.1000000000E+03
         0.2180000000E+08     0.1000000000E+03
         0.2190000000E+08     0.1000000000E+03
         0.2190000000E+08     0.1000000000E+03
         0.2200000000E+08     0.1000000000E+03
         0.2210000000E+08     0.1000000000E+03
         0.2220000000E+08     0.1000000000E+03
         0.2230000000E+08     0.1000000000E+03
         0.2240000000E+08     0.1000000000E+03
         0.2250000000E+08     0.1000000000E+03
         0.2260000000E+08     0.1000000000E+03
         0.2260000000E+08     0.1000000000E+03
         0.2270000000E+08     0.1000000000E+03
         0.2280000000E+08     0.1000000000E+03
         0.2290000000E+08     0.1000000000E+03
         0.2300000000E+08     0.1000000000E+03
         0.2310000000E+08     0.1000000000E+03
         0.2320000000E+08     0.1000000000E+03
         0.2320000000E+08     0.1000000000E+03
         0.2330000000E+08     0.1000000000E+03
         0.2340000000E+08     0.1000000000E+03
         0.2350000000E+08     0.1000000000E+03
         0.2360000000E+08     0.1000000000E+03
         0.2370000000E+08     0.1000000000E+03
         0.2380000000E+08     0.1000000000E+03
         0.2380000000E+08     0.1000000000E+03
         0.2390000000E+08     0.1000000000E+03
         0.2400000000E+08     0.1000000000E+03
         0.2410000000E+08     0.1000000000E+03
         0.2420000000E+08     0.1000000000E+03
         0.2430000000E+08     0.1000000000E+03
         0.2440000000E+08     0.1000000000E+03
         0.2450000000E+08     0.1000000000E+03
         0.2450000000E+08     0.1000000000E+03
         0.2460000000E+08     0.1000000000E+03
         0.2470000000E+08     0.1000000000E+03
         0.2480000000E+08     0.1000000000E+03
         0.2490000000E+08     0.1000000000E+03
         0.2500000000E+08     0.1000000000E+03
         0.2510000000E+08     0.1000000000E+03
         0.2510000000E+08     0.1000000000E+03
         0.2520000000E+08     0.1000000000E+03
         0.2530000000E+08     0.1000000000E+03
         0.2540000000E+08     0.1000000000E+03
         0.2550000000E+08     0.1000000000E+03
         0.2560000000E+08     0.1000000000E+03
         0.2570000000E+08     0.1000000000E+03
         0.2570000000E+08     0.1000000000E+03
         0.2580000000E+08     0.1000000000E+03
         0.2590000000E+08     0.1000000000E+03
         0.2600000000E+08     0.1000000000E+03
         0.2610000000E+08     0.1000000000E+03
         0.2620000000E+08     0.1000000000E+03
         0.2630000000E+08     0.1000000000E+03
         0.2640000000E+08     0.1000000000E+03
         0.2640000000E+08     0.1000000000E+03
         0.2650000000E+08     0.1000000000E+03
         0.2660000000E+08     0.1000000000E+03
         0.2670000000E+08     0.1000000000E+03
         0.2680000000E+08     0.1000000000E+03
         0.2690000000E+08     0.1000000000E+03
         0.2700000000E+08     0.1000000000E+03
         0.2700000000E+08     0.1000000000E+03
         0.2710000000E+08     0.1000000000E+03
         0.2720000000E+08     0.1000000000E+03
         0.2730000000E+08     0.1000000000E+03
         0.2740000000E+08     0.1000000000E+03
         0.2750000000E+08     0.1000000000E+03
         0.2760000000E+08     0.1000000000E+03
         0.2760000000E+08     0.1000000000E+03
         0.2770000000E+08     0.1000000000E+03
         0.2780000000E+08     0.1000000000E+03
         0.2790000000E+08     0.1000000000E+03
         0.2800000000E+08     0.1000000000E+03
         0.2810000000E+08     0.1000000000E+03
         0.2820000000E+08     0.1000000000E+03
         0.2830000000E+08     0.1000000000E+03
         0.2830000000E+08     0.1000000000E+03
         0.2840000000E+08     0.1000000000E+03
         0.2850000000E+08     0.1000000000E+03
         0.2860000000E+08     0.1000000000E+03
         0.2870000000E+08     0.1000000000E+03
         0.2880000000E+08     0.1000000000E+03
         0.2890000000E+08     0.1000000000E+03
         0.2890000000E+08     0.1000000000E+03
         0.2900000000E+08     0.1000000000E+03
         0.2910000000E+08     0.1000000000E+03
         0.2920000000E+08     0.1000000000E+03
         0.2930000000E+08     0.1000000000E+03
         0.2940000000E+08     0.1000000000E+03
         0.2950000000E+08     0.1000000000E+03
         0.2950000000E+08     0.1000000000E+03
         0.2960000000E+08     0.1000000000E+03
         0.2970000000E+08     0.1000000000E+03
         0.2980000000E+08     0.1000000000E+03
         0.2990000000E+08     0.1000000000E+03
         0.3000000000E+08     0.1000000000E+03
         0.3010000000E+08     0.1000000000E+03
         0.3020000000E+08     0.1000000000E+03
         0.3020000000E+08     0.1000000000E+03
         0.3030000000E+08     0.1000000000E+03
         0.3040000000E+08     0.1000000000E+03
         0.3050000000E+08     0.1000000000E+03
         0.3060000000E+08     0.1000000000E+03
         0.3070000000E+08     0.1000000000E+03
         0.3080000000E+08     0.1000000000E+03
         0.3080000000E+08     0.1000000000E+03
         0.3090000000E+08     0.1000000000E+03
         0.3100000000E+08     0.1000000000E+03
         0.3110000000E+08     0.1000000000E+03
         0.3120000000E+08     0.1000000000E+03
         0.3130000000E+08     0.1000000000E+03
         0.3140000000E+08     0.1000000000E+03
         0.3150000000E+08     0.1000000000E+03
         0.3150000000E+08     0.1000000000E+03
         0.3160000000E+08     0.1000000000E+03
         0.3170000000E+08     0.1000000000E+03
         0.3180000000E+08     0.1000000000E+03
         0.3190000000E+08     0.1000000000E+03
         0.3200000000E+08     0.1000000000E+03
         0.3210000000E+08     0.1000000000E+03
         0.3210000000E+08     0.1000000000E+03
         0.3220000000E+08     0.1000000000E+03
         0.3230000000E+08     0.1000000000E+03
         0.3240000000E+08     0.1000000000E+03
         0.3250000000E+08     0.1000000000E+03
         0.3260000000E+08     0.1000000000E+03
         0.3270000000E+08     0.1000000000E+03
         0.3270000000E+08     0.1000000000E+03
         0.3280000000E+08     0.1000000000E+03
         0.3290000000E+08     0.1000000000E+03
         0.3300000000E+08     0.1000000000E+03
         0.3310000000E+08     0.1000000000E+03
         0.3320000000E+08     0.1000000000E+03
         0.3330000000E+08     0.1000000000E+03
         0.3340000000E+08     0.1000000000E+03
         0.3340000000E+08     0.1000000000E+03
         0.3350000000E+08     0.1000000000E+03
         0.3360000000E+08     0.1000000000E+03
         0.3370000000E+08     0.1000000000E+03
         0.3380000000E+08     0.1000000000E+03
         0.3390000000E+08     0.1000000000E+03
         0.3400000000E+08     0.1000000000E+03
         0.3400000000E+08     0.1000000000E+03
         0.3410000000E+08     0.1000000000E+03
         0.3420000000E+08     0.1000000000E+03
         0.3430000000E+08     0.1000000000E+03
         0.3440000000E+08     0.1000000000E+03
         0.3450000000E+08     0.1000000000E+03
         0.3460000000E+08     0.1000000000E+03
         0.3460000000E+08     0.1000000000E+03
         0.3470000000E+08     0.1000000000E+03
         0.3480000000E+08     0.1000000000E+03
         0.3490000000E+08     0.1000000000E+03
         0.3500000000E+08     0.1000000000E+03
         0.3510000000E+08     0.1000000000E+03
         0.3520000000E+08     0.1000000000E+03
         0.3530000000E+08     0.1000000000E+03
         0.3530000000E+08     0.1000000000E+03
         0.3540000000E+08     0.1000000000E+03
         0.3550000000E+08     0.1000000000E+03
         0.3560000000E+08     0.1000000000E+03
         0.3570000000E+08     0.1000000000E+03
         0.3580000000E+08     0.1000000000E+03
         0.3590000000E+08     0.1000000000E+03
         0.3590000000E+08     0.1000000000E+03
         0.3600000000E+08     0.1000000000E+03
         0.3610000000E+08     0.1000000000E+03
         0.3620000000E+08     0.1000000000E+03
         0.3630000000E+08     0.1000000000E+03
         0.3640000000E+08     0.1000000000E+03
         0.3650000000E+08     0.1000000000E+03
         0.3650000000E+08     0.1000000000E+03
         0.3660000000E+08     0.1000000000E+03
         0.3670000000E+08     0.1000000000E+03
         0.3680000000E+08     0.1000000000E+03
         0.3690000000E+08     0.1000000000E+03
         0.3700000000E+08     0.1000000000E+03
         0.3710000000E+08     0.1000000000E+03
         0.3720000000E+08     0.1000000000E+03
         0.3720000000E+08     0.1000000000E+03
         0.3730000000E+08     0.1000000000E+03
         0.3740000000E+08     0.1000000000E+03
         0.3750000000E+08     0.1000000000E+03
         0.3760000000E+08     0.1000000000E+03
         0.3770000000E+08     0.1000000000E+03
         0.3780000000E+08     0.1000000000E+03
         0.3780000000E+08     0.1000000000E+03
         0.3790000000E+08     0.1000000000E+03
         0.3800000000E+08     0.1000000000E+03
         0.3810000000E+08     0.1000000000E+03
         0.3820000000E+08     0.1000000000E+03
         0.3830000000E+08     0.1000000000E+03
         0.3840000000E+08     0.1000000000E+03
         0.3840000000E+08     0.1000000000E+03
         0.3850000000E+08     0.1000000000E+03
         0.3860000000E+08     0.1000000000E+03
         0.3870000000E+08     0.1000000000E+03
         0.3880000000E+08     0.1000000000E+03
         0.3890000000E+08     0.1000000000E+03
         0.3900000000E+08     0.1000000000E+03
         0.3910000000E+08     0.1000000000E+03
         0.3910000000E+08     0.1000000000E+03
         0.3920000000E+08     0.1000000000E+03
         0.3930000000E+08     0.1000000000E+03
         0.3940000000E+08     0.1000000000E+03
         0.3950000000E+08     0.1000000000E+03
         0.3960000000E+08     0.1000000000E+03
         0.3970000000E+08     0.1000000000E+03
         0.3970000000E+08     0.1000000000E+03
         0.3980000000E+08     0.1000000000E+03
         0.3990000000E+08     0.1000000000E+03
         0.4000000000E+08     0.1000000000E+03
         0.4010000000E+08     0.1000000000E+03
         0.4020000000E+08     0.1000000000E+03
         0.4030000000E+08     0.1000000000E+03
         0.4030000000E+08     0.1000000000E+03
         0.4040000000E+08     0.1000000000E+03
         0.4050000000E+08     0.1000000000E+03
         0.4060000000E+08     0.1000000000E+03
         0.4070000000E+08     0.1000000000E+03
         0.4080000000E+08     0.1000000000E+03
         0.4090000000E+08     0.1000000000E+03
         0.4100000000E+08     0.1000000000E+03
         0.4100000000E+08     0.1000000000E+03
         0.4110000000E+08     0.1000000000E+03
         0.4120000000E+08     0.1000000000E+03
         0.4130000000E+08     0.1000000000E+03
         0.4140000000E+08     0.1000000000E+03
         0.4150000000E+08     0.1000000000E+03
         0.4160000000E+08     0.1000000000E+03
         0.4160000000E+08     0.1000000000E+03
         0.4170000000E+08     0.1000000000E+03
         0.4180000000E+08     0.1000000000E+03
         0.4190000000E+08     0.1000000000E+03
         0.4200000000E+08     0.1000000000E+03
         0.4210000000E+08     0.1000000000E+03
         0.4220000000E+08     0.1000000000E+03
         0.4230000000E+08     0.1000000000E+03
         0.4230000000E+08     0.1000000000E+03
         0.4240000000E+08     0.1000000000E+03
         0.4250000000E+08     0.1000000000E+03
         0.4260000000E+08     0.1000000000E+03
         0.4270000000E+08     0.1000000000E+03
         0.4280000000E+08     0.1000000000E+03
         0.4290000000E+08     0.1000000000E+03
         0.4290000000E+08     0.1000000000E+03
         0.4300000000E+08     0.1000000000E+03
         0.4310000000E+08     0.1000000000E+03
         0.4320000000E+08     0.1000000000E+03
         0.4330000000E+08     0.1000000000E+03
         0.4340000000E+08     0.1000000000E+03
         0.4350000000E+08     0.1000000000E+03
         0.4350000000E+08     0.1000000000E+03
         0.4360000000E+08     0.1000000000E+03
         0.4370000000E+08     0.1000000000E+03
         0.4380000000E+08     0.1000000000E+03
         0.4390000000E+08     0.1000000000E+03
         0.4400000000E+08     0.1000000000E+03
         0.4410000000E+08     0.1000000000E+03
         0.4420000000E+08     0.1000000000E+03
         0.4420000000E+08     0.1000000000E+03
         0.4430000000E+08     0.1000000000E+03
         0.4440000000E+08     0.1000000000E+03
         0.4450000000E+08     0.1000000000E+03
         0.4460000000E+08     0.1000000000E+03
         0.4470000000E+08     0.1000000000E+03
         0.4480000000E+08     0.1000000000E+03
         0.4480000000E+08     0.1000000000E+03
         0.4490000000E+08     0.1000000000E+03
         0.4500000000E+08     0.1000000000E+03
         0.4510000000E+08     0.1000000000E+03
         0.4520000000E+08     0.1000000000E+03
         0.4530000000E+08     0.1000000000E+03
         0.4540000000E+08     0.1000000000E+03
         0.4540000000E+08     0.1000000000E+03
         0.4550000000E+08     0.1000000000E+03
         0.4560000000E+08     0.1000000000E+03
         0.4570000000E+08     0.1000000000E+03
         0.4580000000E+08     0.1000000000E+03
         0.4590000000E+08     0.1000000000E+03
         0.4600000000E+08     0.1000000000E+03
         0.4610000000E+08     0.1000000000E+03
         0.4610000000E+08     0.1000000000E+03
         0.4620000000E+08     0.1000000000E+03
         0.4630000000E+08     0.1000000000E+03
         0.4640000000E+08     0.1000000000E+03
         0.4650000000E+08     0.1000000000E+03
         0.4660000000E+08     0.1000000000E+03
         0.4670000000E+08     0.1000000000E+03
         0.4670000000E+08     0.1000000000E+03
         0.4680000000E+08     0.1000000000E+03
         0.4690000000E+08     0.1000000000E+03
         0.4700000000E+08     0.1000000000E+03
         0.4710000000E+08     0.1000000000E+03
         0.4720000000E+08     0.1000000000E+03
         0.4730000000E+08     0.1000000000E+03
         0.4730000000E+08     0.1000000000E+03
         0.4740000000E+08     0.1000000000E+03
         0.4750000000E+08     0.1000000000E+03
         0.4760000000E+08     0.1000000000E+03
         0.4770000000E+08     0.1000000000E+03
         0.4780000000E+08     0.1000000000E+03
         0.4790000000E+08     0.1000000000E+03
         0.4800000000E+08     0.1000000000E+03
         0.4800000000E+08     0.1000000000E+03
         0.4810000000E+08     0.1000000000E+03
         0.4820000000E+08     0.1000000000E+03
         0.4830000000E+08     0.1000000000E+03
         0.4840000000E+08     0.1000000000E+03
         0.4850000000E+08     0.1000000000E+03
         0.4860000000E+08     0.1000000000E+03
         0.4860000000E+08     0.1000000000E+03
         0.4870000000E+08     0.1000000000E+03
         0.4880000000E+08     0.1000000000E+03
         0.4890000000E+08     0.1000000000E+03
         0.4900000000E+08     0.1000000000E+03
         0.4910000000E+08     0.1000000000E+03
         0.4920000000E+08     0.1000000000E+03
         0.4920000000E+08     0.1000000000E+03
         0.4930000000E+08     0.1000000000E+03
         0.4940000000E+08     0.1000000000E+03
         0.4950000000E+08     0.1000000000E+03
         0.4960000000E+08     0.1000000000E+03
         0.4970000000E+08     0.1000000000E+03
         0.4980000000E+08     0.1000000000E+03
         0.4990000000E+08     0.1000000000E+03
         0.4990000000E+08     0.1000000000E+03
         0.5000000000E+08     0.1000000000E+03
         0.5010000000E+08     0.1000000000E+03
         0.5020000000E+08     0.1000000000E+03
         0.5030000000E+08     0.1000000000E+03
         0.5040000000E+08     0.1000000000E+03
         0.5050000000E+08     0.1000000000E+03
         0.5050000000E+08     0.1000000000E+03
         0.5060000000E+08     0.1000000000E+03
         0.5070000000E+08     0.1000000000E+03
         0.5080000000E+08     0.1000000000E+03
         0.5090000000E+08     0.1000000000E+03
         0.5100000000E+08     0.1000000000E+03
         0.5110000000E+08     0.1000000000E+03
         0.5110000000E+08     0.1000000000E+03
         0.5120000000E+08     0.1000000000E+03
         0.5130000000E+08     0.1000000000E+03
         0.5140000000E+08     0.1000000000E+03
         0.5150000000E+08     0.1000000000E+03
         0.5160000000E+08     0.1000000000E+03
         0.5170000000E+08     0.1000000000E+03
         0.5180000000E+08     0.1000000000E+03
         0.5180000000E+08     0.1000000000E+03
         0.5190000000E+08     0.1000000000E+03
         0.5200000000E+08     0.1000000000E+03
         0.5210000000E+08     0.1000000000E+03
         0.5220000000E+08     0.1000000000E+03
         0.5230000000E+08     0.1000000000E+03
         0.5240000000E+08     0.1000000000E+03
         0.5240000000E+08     0.1000000000E+03
         0.5250000000E+08     0.1000000000E+03
         0.5260000000E+08     0.1000000000E+03
         0.5270000000E+08     0.1000000000E+03
         0.5280000000E+08     0.1000000000E+03
         0.5290000000E+08     0.1000000000E+03
         0.5300000000E+08     0.1000000000E+03
         0.5310000000E+08     0.1000000000E+03
         0.5310000000E+08     0.1000000000E+03
         0.5320000000E+08     0.1000000000E+03
         0.5330000000E+08     0.1000000000E+03
         0.5340000000E+08     0.1000000000E+03
         0.5350000000E+08     0.1000000000E+03
         0.5360000000E+08     0.1000000000E+03
         0.5370000000E+08     0.1000000000E+03
         0.5370000000E+08     0.1000000000E+03
         0.5380000000E+08     0.1000000000E+03
         0.5390000000E+08     0.1000000000E+03
         0.5400000000E+08     0.1000000000E+03
         0.5410000000E+08     0.1000000000E+03
         0.5420000000E+08     0.1000000000E+03
         0.5430000000E+08     0.1000000000E+03
         0.5430000000E+08     0.1000000000E+03
         0.5440000000E+08     0.1000000000E+03
         0.5450000000E+08     0.1000000000E+03
         0.5460000000E+08     0.1000000000E+03
         0.5470000000E+08     0.1000000000E+03
         0.5480000000E+08     0.1000000000E+03
         0.5490000000E+08     0.1000000000E+03
         0.5500000000E+08     0.1000000000E+03
         0.5500000000E+08     0.1000000000E+03
         0.5510000000E+08     0.1000000000E+03
         0.5520000000E+08     0.1000000000E+03
         0.5530000000E+08     0.1000000000E+03
         0.5540000000E+08     0.1000000000E+03
         0.5550000000E+08     0.1000000000E+03
         0.5560000000E+08     0.1000000000E+03
         0.5560000000E+08     0.1000000000E+03
         0.5570000000E+08     0.1000000000E+03
         0.5580000000E+08     0.1000000000E+03
         0.5590000000E+08     0.1000000000E+03
         0.5600000000E+08     0.1000000000E+03
         0.5610000000E+08     0.1000000000E+03
         0.5620000000E+08     0.1000000000E+03
         0.5620000000E+08     0.1000000000E+03
         0.5630000000E+08     0.1000000000E+03
         0.5640000000E+08     0.1000000000E+03
         0.5650000000E+08     0.1000000000E+03
         0.5660000000E+08     0.1000000000E+03
         0.5670000000E+08     0.1000000000E+03
         0.5680000000E+08     0.1000000000E+03
         0.5690000000E+08     0.1000000000E+03
         0.5690000000E+08     0.1000000000E+03
         0.5700000000E+08     0.1000000000E+03
         0.5710000000E+08     0.1000000000E+03
         0.5720000000E+08     0.1000000000E+03
         0.5730000000E+08     0.1000000000E+03
         0.5740000000E+08     0.1000000000E+03
         0.5750000000E+08     0.1000000000E+03
         0.5750000000E+08     0.1000000000E+03
         0.5760000000E+08     0.1000000000E+03
         0.5770000000E+08     0.1000000000E+03
         0.5780000000E+08     0.1000000000E+03
         0.5790000000E+08     0.1000000000E+03
         0.5800000000E+08     0.1000000000E+03
         0.5810000000E+08     0.1000000000E+03
         0.5810000000E+08     0.1000000000E+03
         0.5820000000E+08     0.1000000000E+03
         0.5830000000E+08     0.1000000000E+03
         0.5840000000E+08     0.1000000000E+03
         0.5850000000E+08     0.1000000000E+03
         0.5860000000E+08     0.1000000000E+03
         0.5870000000E+08     0.1000000000E+03
         0.5880000000E+08     0.1000000000E+03
         0.5880000000E+08     0.1000000000E+03
         0.5890000000E+08     0.1000000000E+03
         0.5900000000E+08     0.1000000000E+03
         0.5910000000E+08     0.1000000000E+03
         0.5920000000E+08     0.1000000000E+03
         0.5930000000E+08     0.1000000000E+03
         0.5940000000E+08     0.1000000000E+03
         0.5940000000E+08     0.1000000000E+03
         0.5950000000E+08     0.1000000000E+03
         0.5960000000E+08     0.1000000000E+03
         0.5970000000E+08     0.1000000000E+03
         0.5980000000E+08     0.1000000000E+03
         0.5990000000E+08     0.1000000000E+03
         0.6000000000E+08     0.1000000000E+03
         0.6000000000E+08     0.1000000000E+03
         0.6010000000E+08     0.1000000000E+03
         0.6020000000E+08     0.1000000000E+03
         0.6030000000E+08     0.1000000000E+03
         0.6040000000E+08     0.1000000000E+03
         0.6050000000E+08     0.1000000000E+03
         0.6060000000E+08     0.1000000000E+03
         0.6070000000E+08     0.1000000000E+03
         0.6070000000E+08     0.1000000000E+03
         0.6080000000E+08     0.1000000000E+03
         0.6090000000E+08     0.1000000000E+03
         0.6100000000E+08     0.1000000000E+03
         0.6110000000E+08     0.1000000000E+03
         0.6120000000E+08     0.1000000000E+03
         0.6130000000E+08     0.1000000000E+03
         0.6130000000E+08     0.1000000000E+03
         0.6140000000E+08     0.1000000000E+03
         0.6150000000E+08     0.1000000000E+03
         0.6160000000E+08     0.1000000000E+03
         0.6170000000E+08     0.1000000000E+03
         0.6180000000E+08     0.1000000000E+03
         0.6190000000E+08     0.1000000000E+03
         0.6190000000E+08     0.1000000000E+03
         0.6200000000E+08     0.1000000000E+03
         0.6210000000E+08     0.1000000000E+03
         0.6220000000E+08     0.1000000000E+03
         0.6230000000E+08     0.1000000000E+03
         0.6240000000E+08     0.1000000000E+03
         0.6250000000E+08     0.1000000000E+03
         0.6260000000E+08     0.1000000000E+03
         0.6260000000E+08     0.1000000000E+03
         0.6270000000E+08     0.1000000000E+03
         0.6280000000E+08     0.1000000000E+03
         0.6290000000E+08     0.1000000000E+03
         0.6300000000E+08     0.1000000000E+03
         0.6310000000E+08     0.1000000000E+03
         0.6320000000E+08     0.1000000000E+03
         0.6320000000E+08     0.1000000000E+03
         0.6330000000E+08     0.1000000000E+03
         0.6340000000E+08     0.1000000000E+03
         0.6350000000E+08     0.1000000000E+03
         0.6360000000E+08     0.1000000000E+03
         0.6370000000E+08     0.1000000000E+03
         0.6380000000E+08     0.1000000000E+03
         0.6390000000E+08     0.1000000000E+03
         0.6390000000E+08     0.1000000000E+03
         0.6400000000E+08     0.1000000000E+03
         0.6410000000E+08     0.1000000000E+03
         0.6420000000E+08     0.1000000000E+03
         0.6430000000E+08     0.1000000000E+03
         0.6440000000E+08     0.1000000000E+03
         0.6450000000E+08     0.1000000000E+03
         0.6450000000E+08     0.1000000000E+03
         0.6460000000E+08     0.1000000000E+03
         0.6470000000E+08     0.1000000000E+03
         0.6480000000E+08     0.1000000000E+03
         0.6490000000E+08     0.1000000000E+03
         0.6500000000E+08     0.1000000000E+03
         0.6510000000E+08     0.1000000000E+03
         0.6510000000E+08     0.1000000000E+03
         0.6520000000E+08     0.1000000000E+03
         0.6530000000E+08     0.1000000000E+03
         0.6540000000E+08     0.1000000000E+03
         0.6550000000E+08     0.1000000000E+03
         0.6560000000E+08     0.1000000000E+03
         0.6570000000E+08     0.1000000000E+03
         0.6580000000E+08     0.1000000000E+03
         0.6590000000E+08     0.1000000000E+03
         0.6600000000E+08     0.1000000000E+03
         0.6610000000E+08     0.1000000000E+03
         0.6610000000E+08     0.1000000000E+03
         0.6620000000E+08     0.1000000000E+03
         0.6630000000E+08     0.1000000000E+03
         0.6640000000E+08     0.1000000000E+03
         0.6650000000E+08     0.1000000000E+03
         0.6660000000E+08     0.1000000000E+03
         0.6670000000E+08     0.1000000000E+03
         0.6670000000E+08     0.1000000000E+03
         0.6680000000E+08     0.1000000000E+03
         0.6690000000E+08     0.1000000000E+03
         0.6700000000E+08     0.1000000000E+03
         0.6710000000E+08     0.1000000000E+03
         0.6720000000E+08     0.1000000000E+03
         0.6730000000E+08     0.1000000000E+03
         0.6730000000E+08     0.1000000000E+03
         0.6740000000E+08     0.1000000000E+03
         0.6750000000E+08     0.1000000000E+03
         0.6760000000E+08     0.1000000000E+03
         0.6770000000E+08     0.1000000000E+03
         0.6780000000E+08     0.1000000000E+03
         0.6790000000E+08     0.1000000000E+03
         0.6800000000E+08     0.1000000000E+03
         0.6810000000E+08     0.1000000000E+03
         0.6820000000E+08     0.1000000000E+03
         0.6830000000E+08     0.1000000000E+03
         0.6830000000E+08     0.1000000000E+03
         0.6840000000E+08     0.1000000000E+03
         0.6850000000E+08     0.1000000000E+03
         0.6860000000E+08     0.1000000000E+03
         0.6870000000E+08     0.1000000000E+03
         0.6880000000E+08     0.1000000000E+03
         0.6890000000E+08     0.1000000000E+03
         0.6890000000E+08     0.1000000000E+03
         0.6900000000E+08     0.1000000000E+03
         0.6910000000E+08     0.1000000000E+03
         0.6920000000E+08     0.1000000000E+03
         0.6930000000E+08     0.1000000000E+03
         0.6940000000E+08     0.1000000000E+03
         0.6950000000E+08     0.1000000000E+03
         0.6950000000E+08     0.1000000000E+03
         0.6960000000E+08     0.1000000000E+03
         0.6970000000E+08     0.1000000000E+03
         0.6980000000E+08     0.1000000000E+03
         0.6990000000E+08     0.1000000000E+03
         0.7000000000E+08     0.1000000000E+03
         0.7010000000E+08     0.1000000000E+03
         0.7020000000E+08     0.1000000000E+03
         0.7030000000E+08     0.1000000000E+03
         0.7040000000E+08     0.1000000000E+03
         0.7050000000E+08     0.1000000000E+03
         0.7050000000E+08     0.1000000000E+03
         0.7060000000E+08     0.1000000000E+03
         0.7070000000E+08     0.1000000000E+03
         0.7080000000E+08     0.1000000000E+03
         0.7090000000E+08     0.1000000000E+03
         0.7100000000E+08     0.1000000000E+03
         0.7110000000E+08     0.1000000000E+03
         0.7110000000E+08     0.1000000000E+03
         0.7120000000E+08     0.1000000000E+03
         0.7130000000E+08     0.1000000000E+03
         0.7140000000E+08     0.1000000000E+03
         0.7150000000E+08     0.1000000000E+03
         0.7160000000E+08     0.1000000000E+03
         0.7170000000E+08     0.1000000000E+03
         0.7170000000E+08     0.1000000000E+03
         0.7180000000E+08     0.1000000000E+03
         0.7190000000E+08     0.1000000000E+03
         0.7200000000E+08     0.1000000000E+03
         0.7210000000E+08     0.1000000000E+03
         0.7220000000E+08     0.1000000000E+03
         0.7230000000E+08     0.1000000000E+03
         0.7240000000E+08     0.1000000000E+03
         0.7250000000E+08     0.1000000000E+03
         0.7260000000E+08     0.1000000000E+03
         0.7270000000E+08     0.1000000000E+03
         0.7270000000E+08     0.1000000000E+03
         0.7280000000E+08     0.1000000000E+03
         0.7290000000E+08     0.1000000000E+03
         0.7300000000E+08     0.1000000000E+03
         0.7310000000E+08     0.1000000000E+03
         0.7320000000E+08     0.1000000000E+03
         0.7330000000E+08     0.1000000000E+03
         0.7330000000E+08     0.1000000000E+03
         0.7340000000E+08     0.1000000000E+03
         0.7350000000E+08     0.1000000000E+03
         0.7360000000E+08     0.1000000000E+03
         0.7370000000E+08     0.1000000000E+03
         0.7380000000E+08     0.1000000000E+03
         0.7390000000E+08     0.1000000000E+03
         0.7390000000E+08     0.1000000000E+03
         0.7400000000E+08     0.1000000000E+03
         0.7410000000E+08     0.1000000000E+03
         0.7420000000E+08     0.1000000000E+03
         0.7430000000E+08     0.1000000000E+03
         0.7440000000E+08     0.1000000000E+03
         0.7450000000E+08     0.1000000000E+03
         0.7460000000E+08     0.1000000000E+03
         0.7470000000E+08     0.1000000000E+03
         0.7480000000E+08     0.1000000000E+03
         0.7490000000E+08     0.1000000000E+03
         0.7490000000E+08     0.1000000000E+03
         0.7500000000E+08     0.1000000000E+03
         0.7510000000E+08     0.1000000000E+03
         0.7520000000E+08     0.1000000000E+03
         0.7530000000E+08     0.1000000000E+03
         0.7540000000E+08     0.1000000000E+03
         0.7550000000E+08     0.1000000000E+03
         0.7550000000E+08     0.1000000000E+03
         0.7560000000E+08     0.1000000000E+03
         0.7570000000E+08     0.1000000000E+03
         0.7580000000E+08     0.1000000000E+03
         0.7590000000E+08     0.1000000000E+03
         0.7600000000E+08     0.1000000000E+03
         0.7610000000E+08     0.1000000000E+03
         0.7610000000E+08     0.1000000000E+03
         0.7620000000E+08     0.1000000000E+03
         0.7630000000E+08     0.1000000000E+03
         0.7640000000E+08     0.1000000000E+03
         0.7650000000E+08     0.1000000000E+03
         0.7660000000E+08     0.1000000000E+03
         0.7670000000E+08     0.1000000000E+03
         0.7680000000E+08     0.1000000000E+03
         0.7690000000E+08     0.1000000000E+03
         0.7700000000E+08     0.1000000000E+03
         0.7710000000E+08     0.1000000000E+03
         0.7710000000E+08     0.1000000000E+03
         0.7720000000E+08     0.1000000000E+03
         0.7730000000E+08     0.1000000000E+03
         0.7740000000E+08     0.1000000000E+03
         0.7750000000E+08     0.1000000000E+03
         0.7760000000E+08     0.1000000000E+03
         0.7770000000E+08     0.1000000000E+03
         0.7770000000E+08     0.1000000000E+03
         0.7780000000E+08     0.1000000000E+03
         0.7790000000E+08     0.1000000000E+03
         0.7800000000E+08     0.1000000000E+03
         0.7810000000E+08     0.1000000000E+03
         0.7820000000E+08     0.1000000000E+03
         0.7830000000E+08     0.1000000000E+03
         0.7830000000E+08     0.1000000000E+03
         0.7840000000E+08     0.1000000000E+03
         0.7850000000E+08     0.1000000000E+03
         0.7860000000E+08     0.1000000000E+03
         0.7870000000E+08     0.1000000000E+03
         0.7880000000E+08     0.1000000000E+03
         0.7890000000E+08     0.1000000000E+03
         0.7900000000E+08     0.1000000000E+03
         0.7910000000E+08     0.1000000000E+03
         0.7920000000E+08     0.1000000000E+03
         0.7930000000E+08     0.1000000000E+03
         0.7930000000E+08     0.1000000000E+03
         0.7940000000E+08     0.1000000000E+03
         0.7950000000E+08     0.1000000000E+03
         0.7960000000E+08     0.1000000000E+03
         0.7970000000E+08     0.1000000000E+03
         0.7980000000E+08     0.1000000000E+03
         0.7990000000E+08     0.1000000000E+03
         0.7990000000E+08     0.1000000000E+03
         0.8000000000E+08     0.1000000000E+03
         0.8010000000E+08     0.1000000000E+03
         0.8020000000E+08     0.1000000000E+03
         0.8030000000E+08     0.1000000000E+03
         0.8040000000E+08     0.1000000000E+03
         0.8050000000E+08     0.1000000000E+03
         0.8050000000E+08     0.1000000000E+03
         0.8060000000E+08     0.1000000000E+03
         0.8070000000E+08     0.1000000000E+03
         0.8080000000E+08     0.1000000000E+03
         0.8090000000E+08     0.1000000000E+03
         0.8100000000E+08     0.1000000000E+03
         0.8110000000E+08     0.1000000000E+03
         0.8120000000E+08     0.1000000000E+03
         0.8130000000E+08     0.1000000000E+03
         0.8140000000E+08     0.1000000000E+03
         0.8150000000E+08     0.1000000000E+03
         0.8150000000E+08     0.1000000000E+03
         0.8160000000E+08     0.1000000000E+03
         0.8170000000E+08     0.1000000000E+03
         0.8180000000E+08     0.1000000000E+03
         0.8190000000E+08     0.1000000000E+03
         0.8200000000E+08     0.1000000000E+03
         0.8210000000E+08     0.1000000000E+03
         0.8210000000E+08     0.1000000000E+03
         0.8220000000E+08     0.1000000000E+03
         0.8230000000E+08     0.1000000000E+03
         0.8240000000E+08     0.1000000000E+03
         0.8250000000E+08     0.1000000000E+03
         0.8260000000E+08     0.1000000000E+03
         0.8270000000E+08     0.1000000000E+03
         0.8270000000E+08     0.1000000000E+03
         0.8280000000E+08     0.1000000000E+03
         0.8290000000E+08     0.1000000000E+03
         0.8300000000E+08     0.1000000000E+03
         0.8310000000E+08     0.1000000000E+03
         0.8320000000E+08     0.1000000000E+03
         0.8330000000E+08     0.1000000000E+03
         0.8340000000E+08     0.1000000000E+03
         0.8350000000E+08     0.1000000000E+03
         0.8360000000E+08     0.1000000000E+03
         0.8370000000E+08     0.1000000000E+03
         0.8370000000E+08     0.1000000000E+03
         0.8380000000E+08     0.1000000000E+03
         0.8390000000E+08     0.1000000000E+03
         0.8400000000E+08     0.1000000000E+03
         0.8410000000E+08     0.1000000000E+03
         0.8420000000E+08     0.1000000000E+03
         0.8430000000E+08     0.1000000000E+03
         0.8430000000E+08     0.1000000000E+03
         0.8440000000E+08     0.1000000000E+03
         0.8450000000E+08     0.1000000000E+03
         0.8460000000E+08     0.1000000000E+03
         0.8470000000E+08     0.1000000000E+03
         0.8480000000E+08     0.1000000000E+03
         0.8490000000E+08     0.1000000000E+03
         0.8490000000E+08     0.1000000000E+03
         0.8500000000E+08     0.1000000000E+03
         0.8510000000E+08     0.1000000000E+03
         0.8520000000E+08     0.1000000000E+03
         0.8530000000E+08     0.1000000000E+03
         0.8540000000E+08     0.1000000000E+03
         0.8550000000E+08     0.1000000000E+03
         0.8560000000E+08     0.1000000000E+03
         0.8570000000E+08     0.1000000000E+03
         0.8580000000E+08     0.1000000000E+03
         0.8590000000E+08     0.1000000000E+03
         0.8590000000E+08     0.1000000000E+03
         0.8600000000E+08     0.1000000000E+03
         0.8610000000E+08     0.1000000000E+03
         0.8620000000E+08     0.1000000000E+03
         0.8630000000E+08     0.1000000000E+03
         0.8640000000E+08     0.1000000000E+03
         0.8650000000E+08     0.1000000000E+03
         0.8650000000E+08     0.1000000000E+03
         0.8660000000E+08     0.1000000000E+03
         0.8670000000E+08     0.1000000000E+03
         0.8680000000E+08     0.1000000000E+03
         0.8690000000E+08     0.1000000000E+03
         0.8700000000E+08     0.1000000000E+03
         0.8710000000E+08     0.1000000000E+03
         0.8710000000E+08     0.1000000000E+03
         0.8720000000E+08     0.1000000000E+03
         0.8730000000E+08     0.1000000000E+03
         0.8740000000E+08     0.1000000000E+03
         0.8750000000E+08     0.1000000000E+03
         0.8760000000E+08     0.1000000000E+03
         0.8770000000E+08     0.1000000000E+03
         0.8780000000E+08     0.1000000000E+03
         0.8790000000E+08     0.1000000000E+03
         0.8800000000E+08     0.1000000000E+03
         0.8810000000E+08     0.1000000000E+03
         0.8810000000E+08     0.1000000000E+03
         0.8820000000E+08     0.1000000000E+03
         0.8830000000E+08     0.1000000000E+03
         0.8840000000E+08     0.1000000000E+03
         0.8850000000E+08     0.1000000000E+03
         0.8860000000E+08     0.1000000000E+03
         0.8870000000E+08     0.1000000000E+03
         0.8870000000E+08     0.1000000000E+03
         0.8880000000E+08     0.1000000000E+03
         0.8890000000E+08     0.1000000000E+03
         0.8900000000E+08     0.1000000000E+03
         0.8910000000E+08     0.1000000000E+03
         0.8920000000E+08     0.1000000000E+03
         0.8930000000E+08     0.1000000000E+03
         0.8930000000E+08     0.1000000000E+03
         0.8940000000E+08     0.1000000000E+03
         0.8950000000E+08     0.1000000000E+03
         0.8960000000E+08     0.1000000000E+03
         0.8970000000E+08     0.1000000000E+03
         0.8980000000E+08     0.1000000000E+03
         0.8990000000E+08     0.1000000000E+03
         0.9000000000E+08     0.1000000000E+03
         0.9010000000E+08     0.1000000000E+03
         0.9020000000E+08     0.1000000000E+03
         0.9030000000E+08     0.1000000000E+03
         0.9030000000E+08     0.1000000000E+03
         0.9040000000E+08     0.1000000000E+03
         0.9050000000E+08     0.1000000000E+03
         0.9060000000E+08     0.1000000000E+03
         0.9070000000E+08     0.1000000000E+03
         0.9080000000E+08     0.1000000000E+03
         0.9090000000E+08     0.1000000000E+03
         0.9090000000E+08     0.1000000000E+03
         0.9100000000E+08     0.1000000000E+03
         0.9110000000E+08     0.1000000000E+03
         0.9120000000E+08     0.1000000000E+03
         0.9130000000E+08     0.1000000000E+03
         0.9140000000E+08     0.1000000000E+03
         0.9150000000E+08     0.1000000000E+03
         0.9150000000E+08     0.1000000000E+03
         0.9160000000E+08     0.1000000000E+03
         0.9170000000E+08     0.1000000000E+03
         0.9180000000E+08     0.1000000000E+03
         0.9190000000E+08     0.1000000000E+03
         0.9200000000E+08     0.1000000000E+03
         0.9210000000E+08     0.1000000000E+03
         0.9220000000E+08     0.1000000000E+03
         0.9230000000E+08     0.1000000000E+03
         0.9240000000E+08     0.1000000000E+03
         0.9250000000E+08     0.1000000000E+03
         0.9250000000E+08     0.1000000000E+03
         0.9260000000E+08     0.1000000000E+03
         0.9270000000E+08     0.1000000000E+03
         0.9280000000E+08     0.1000000000E+03
         0.9290000000E+08     0.1000000000E+03
         0.9300000000E+08     0.1000000000E+03
         0.9310000000E+08     0.1000000000E+03
         0.9310000000E+08     0.1000000000E+03
         0.9320000000E+08     0.1000000000E+03
         0.9330000000E+08     0.1000000000E+03
         0.9340000000E+08     0.1000000000E+03
         0.9350000000E+08     0.1000000000E+03
         0.9360000000E+08     0.1000000000E+03
         0.9370000000E+08     0.1000000000E+03
         0.9370000000E+08     0.1000000000E+03
         0.9380000000E+08     0.1000000000E+03
         0.9390000000E+08     0.1000000000E+03
         0.9400000000E+08     0.1000000000E+03
         0.9410000000E+08     0.1000000000E+03
         0.9420000000E+08     0.1000000000E+03
         0.9430000000E+08     0.1000000000E+03
         0.9440000000E+08     0.1000000000E+03
         0.9450000000E+08     0.1000000000E+03
         0.9460000000E+08     0.1000000000E+03
         0.9470000000E+08     0.1000000000E+03
         0.9470000000E+08     0.1000000000E+03
         0.9480000000E+08     0.1000000000E+03
         0.9490000000E+08     0.1000000000E+03
         0.9500000000E+08     0.1000000000E+03
         0.9510000000E+08     0.1000000000E+03
         0.9520000000E+08     0.1000000000E+03
         0.9530000000E+08     0.1000000000E+03
         0.9530000000E+08     0.1000000000E+03
         0.9540000000E+08     0.1000000000E+03
         0.9550000000E+08     0.1000000000E+03
         0.9560000000E+08     0.1000000000E+03
         0.9570000000E+08     0.1000000000E+03
         0.9580000000E+08     0.1000000000E+03
         0.9590000000E+08     0.1000000000E+03
         0.9590000000E+08     0.1000000000E+03
         0.9600000000E+08     0.1000000000E+03
         0.9610000000E+08     0.1000000000E+03
         0.9620000000E+08     0.1000000000E+03
         0.9630000000E+08     0.1000000000E+03
         0.9640000000E+08     0.1000000000E+03
         0.9650000000E+08     0.1000000000E+03
         0.9660000000E+08     0.1000000000E+03
         0.9670000000E+08     0.1000000000E+03
         0.9680000000E+08     0.1000000000E+03
         0.9690000000E+08     0.1000000000E+03
         0.9690000000E+08     0.1000000000E+03
         0.9700000000E+08     0.1000000000E+03
         0.9710000000E+08     0.1000000000E+03
         0.9720000000E+08     0.1000000000E+03
         0.9730000000E+08     0.1000000000E+03
         0.9740000000E+08     0.1000000000E+03
         0.9750000000E+08     0.1000000000E+03
         0.9750000000E+08     0.1000000000E+03
         0.9760000000E+08     0.1000000000E+03
         0.9770000000E+08     0.1000000000E+03
         0.9780000000E+08     0.1000000000E+03
         0.9790000000E+08     0.1000000000E+03
         0.9800000000E+08     0.1000000000E+03
         0.9810000000E+08     0.1000000000E+03
         0.9810000000E+08     0.1000000000E+03
         0.9820000000E+08     0.1000000000E+03
         0.9830000000E+08     0.1000000000E+03
         0.9840000000E+08     0.1000000000E+03
         0.9850000000E+08     0.1000000000E+03
         0.9860000000E+08     0.1000000000E+03
         0.9870000000E+08     0.1000000000E+03
         0.9880000000E+08     0.1000000000E+03
         0.9890000000E+08     0.1000000000E+03
         0.9900000000E+08     0.1000000000E+03
         0.9910000000E+08     0.1000000000E+03
         0.9910000000E+08     0.1000000000E+03
         0.9920000000E+08     0.1000000000E+03
         0.9930000000E+08     0.1000000000E+03
         0.9940000000E+08     0.1000000000E+03
         0.9950000000E+08     0.1000000000E+03
         0.9960000000E+08     0.1000000000E+03
         0.9970000000E+08     0.1000000000E+03
         0.9970000000E+08     0.1000000000E+03
         0.9980000000E+08     0.1000000000E+03
         0.9990000000E+08     0.1000000000E+03
         0.1000000000E+09     0.1000000000E+03
         0.1001000000E+09     0.1000000000E+03
         0.1002000000E+09     0.1000000000E+03
         0.1003000000E+09     0.1000000000E+03
         0.1003000000E+09     0.1000000000E+03
         0.1004000000E+09     0.1000000000E+03
         0.1005000000E+09     0.1000000000E+03
         0.1006000000E+09     0.1000000000E+03
         0.1007000000E+09     0.1000000000E+03
         0.1008000000E+09     0.1000000000E+03
         0.1009000000E+09     0.1000000000E+03
         0.1010000000E+09     0.1000000000E+03
         0.1011000000E+09     0.1000000000E+03
         0.1012000000E+09     0.1000000000E+03
         0.1013000000E+09     0.1000000000E+03
         0.1013000000E+09     0.1000000000E+03
         0.1014000000E+09     0.1000000000E+03
         0.1015000000E+09     0.1000000000E+03
         0.1016000000E+09     0.1000000000E+03
         0.1017000000E+09     0.1000000000E+03
         0.1018000000E+09     0.1000000000E+03
         0.1019000000E+09     0.1000000000E+03
         0.1019000000E+09     0.1000000000E+03
         0.1020000000E+09     0.1000000000E+03
         0.1021000000E+09     0.1000000000E+03
         0.1022000000E+09     0.1000000000E+03
         0.1023000000E+09     0.1000000000E+03
         0.1024000000E+09     0.1000000000E+03
         0.1025000000E+09     0.1000000000E+03
         0.1025000000E+09     0.1000000000E+03
         0.1026000000E+09     0.1000000000E+03
         0.1027000000E+09     0.1000000000E+03
         0.1028000000E+09     0.1000000000E+03
         0.1029000000E+09     0.1000000000E+03
         0.1030000000E+09     0.1000000000E+03
         0.1031000000E+09     0.1000000000E+03
         0.1032000000E+09     0.1000000000E+03
         0.1033000000E+09     0.1000000000E+03
         0.1034000000E+09     0.1000000000E+03
         0.1035000000E+09     0.1000000000E+03
         0.1035000000E+09     0.1000000000E+03
         0.1036000000E+09     0.1000000000E+03
         0.1037000000E+09     0.1000000000E+03
         0.1038000000E+09     0.1000000000E+03
         0.1039000000E+09     0.1000000000E+03
         0.1040000000E+09     0.1000000000E+03
         0.1041000000E+09     0.1000000000E+03
         0.1041000000E+09     0.1000000000E+03
         0.1042000000E+09     0.1000000000E+03
         0.1043000000E+09     0.1000000000E+03
         0.1044000000E+09     0.1000000000E+03
         0.1045000000E+09     0.1000000000E+03
         0.1046000000E+09     0.1000000000E+03
         0.1047000000E+09     0.1000000000E+03
         0.1047000000E+09     0.1000000000E+03
         0.1048000000E+09     0.1000000000E+03
         0.1049000000E+09     0.1000000000E+03
         0.1050000000E+09     0.1000000000E+03
         0.1051000000E+09     0.1000000000E+03
         0.1052000000E+09     0.1000000000E+03
         0.1053000000E+09     0.1000000000E+03
         0.1054000000E+09     0.1000000000E+03
         0.1055000000E+09     0.1000000000E+03
         0.1056000000E+09     0.1000000000E+03
         0.1057000000E+09     0.1000000000E+03
         0.1057000000E+09     0.1000000000E+03
         0.1058000000E+09     0.1000000000E+03
         0.1059000000E+09     0.1000000000E+03
         0.1060000000E+09     0.1000000000E+03
         0.1061000000E+09     0.1000000000E+03
         0.1062000000E+09     0.1000000000E+03
         0.1063000000E+09     0.1000000000E+03
         0.1063000000E+09     0.1000000000E+03
         0.1064000000E+09     0.1000000000E+03
         0.1065000000E+09     0.1000000000E+03
         0.1066000000E+09     0.1000000000E+03
         0.1067000000E+09     0.1000000000E+03
         0.1068000000E+09     0.1000000000E+03
         0.1069000000E+09     0.1000000000E+03
         0.1069000000E+09     0.1000000000E+03
         0.1070000000E+09     0.1000000000E+03
         0.1071000000E+09     0.1000000000E+03
         0.1072000000E+09     0.1000000000E+03
         0.1073000000E+09     0.1000000000E+03
         0.1074000000E+09     0.1000000000E+03
         0.1075000000E+09     0.1000000000E+03
         0.1076000000E+09     0.1000000000E+03
         0.1077000000E+09     0.1000000000E+03
         0.1078000000E+09     0.1000000000E+03
         0.1079000000E+09     0.1000000000E+03
         0.1079000000E+09     0.1000000000E+03
         0.1080000000E+09     0.1000000000E+03
         0.1081000000E+09     0.1000000000E+03
         0.1082000000E+09     0.1000000000E+03
         0.1083000000E+09     0.1000000000E+03
         0.1084000000E+09     0.1000000000E+03
         0.1085000000E+09     0.1000000000E+03
         0.1085000000E+09     0.1000000000E+03
         0.1086000000E+09     0.1000000000E+03
         0.1087000000E+09     0.1000000000E+03
         0.1088000000E+09     0.1000000000E+03
         0.1089000000E+09     0.1000000000E+03
         0.1090000000E+09     0.1000000000E+03
         0.1091000000E+09     0.1000000000E+03
         0.1091000000E+09     0.1000000000E+03
         0.1092000000E+09     0.1000000000E+03
         0.1093000000E+09     0.1000000000E+03
         0.1094000000E+09     0.1000000000E+03
         0.1095000000E+09     0.1000000000E+03
         0.1096000000E+09     0.1000000000E+03
         0.1097000000E+09     0.1000000000E+03
         0.1098000000E+09     0.1000000000E+03
         0.1099000000E+09     0.1000000000E+03
         0.1100000000E+09     0.1000000000E+03
         0.1101000000E+09     0.1000000000E+03
         0.1101000000E+09     0.1000000000E+03
         0.1102000000E+09     0.1000000000E+03
         0.1103000000E+09     0.1000000000E+03
         0.1104000000E+09     0.1000000000E+03
         0.1105000000E+09     0.1000000000E+03
         0.1106000000E+09     0.1000000000E+03
         0.1107000000E+09     0.1000000000E+03
         0.1107000000E+09     0.1000000000E+03
         0.1108000000E+09     0.1000000000E+03
         0.1109000000E+09     0.1000000000E+03
         0.1110000000E+09     0.1000000000E+03
         0.1111000000E+09     0.1000000000E+03
         0.1112000000E+09     0.1000000000E+03
         0.1113000000E+09     0.1000000000E+03
         0.1113000000E+09     0.1000000000E+03
         0.1114000000E+09     0.1000000000E+03
         0.1115000000E+09     0.1000000000E+03
         0.1116000000E+09     0.1000000000E+03
         0.1117000000E+09     0.1000000000E+03
         0.1118000000E+09     0.1000000000E+03
         0.1119000000E+09     0.1000000000E+03
         0.1120000000E+09     0.1000000000E+03
         0.1121000000E+09     0.1000000000E+03
         0.1122000000E+09     0.1000000000E+03
         0.1123000000E+09     0.1000000000E+03
         0.1123000000E+09     0.1000000000E+03
         0.1124000000E+09     0.1000000000E+03
         0.1125000000E+09     0.1000000000E+03
         0.1126000000E+09     0.1000000000E+03
         0.1127000000E+09     0.1000000000E+03
         0.1128000000E+09     0.1000000000E+03
         0.1129000000E+09     0.1000000000E+03
         0.1129000000E+09     0.1000000000E+03
         0.1130000000E+09     0.1000000000E+03
         0.1131000000E+09     0.1000000000E+03
         0.1132000000E+09     0.1000000000E+03
         0.1133000000E+09     0.1000000000E+03
         0.1134000000E+09     0.1000000000E+03
         0.1135000000E+09     0.1000000000E+03
         0.1135000000E+09     0.1000000000E+03
         0.1136000000E+09     0.1000000000E+03
         0.1137000000E+09     0.1000000000E+03
         0.1138000000E+09     0.1000000000E+03
         0.1139000000E+09     0.1000000000E+03
         0.1140000000E+09     0.1000000000E+03
         0.1141000000E+09     0.1000000000E+03
         0.1142000000E+09     0.1000000000E+03
         0.1143000000E+09     0.1000000000E+03
         0.1144000000E+09     0.1000000000E+03
         0.1145000000E+09     0.1000000000E+03
         0.1145000000E+09     0.1000000000E+03
         0.1146000000E+09     0.1000000000E+03
         0.1147000000E+09     0.1000000000E+03
         0.1148000000E+09     0.1000000000E+03
         0.1149000000E+09     0.1000000000E+03
         0.1150000000E+09     0.1000000000E+03
         0.1151000000E+09     0.1000000000E+03
         0.1151000000E+09     0.1000000000E+03
         0.1152000000E+09     0.1000000000E+03
         0.1153000000E+09     0.1000000000E+03
         0.1154000000E+09     0.1000000000E+03
         0.1155000000E+09     0.1000000000E+03
         0.1156000000E+09     0.1000000000E+03
         0.1157000000E+09     0.1000000000E+03
         0.1157000000E+09     0.1000000000E+03
         0.1158000000E+09     0.1000000000E+03
         0.1159000000E+09     0.1000000000E+03
         0.1160000000E+09     0.1000000000E+03
         0.1161000000E+09     0.1000000000E+03
         0.1162000000E+09     0.1000000000E+03
         0.1163000000E+09     0.1000000000E+03
         0.1164000000E+09     0.1000000000E+03
         0.1165000000E+09     0.1000000000E+03
         0.1166000000E+09     0.1000000000E+03
         0.1167000000E+09     0.1000000000E+03
         0.1167000000E+09     0.1000000000E+03
         0.1168000000E+09     0.1000000000E+03
         0.1169000000E+09     0.1000000000E+03
         0.1170000000E+09     0.1000000000E+03
         0.1171000000E+09     0.1000000000E+03
         0.1172000000E+09     0.1000000000E+03
         0.1173000000E+09     0.1000000000E+03
         0.1173000000E+09     0.1000000000E+03
         0.1174000000E+09     0.1000000000E+03
         0.1175000000E+09     0.1000000000E+03
         0.1176000000E+09     0.1000000000E+03
         0.1177000000E+09     0.1000000000E+03
         0.1178000000E+09     0.1000000000E+03
         0.1179000000E+09     0.1000000000E+03
         0.1179000000E+09     0.1000000000E+03
         0.1180000000E+09     0.1000000000E+03
         0.1181000000E+09     0.1000000000E+03
         0.1182000000E+09     0.1000000000E+03
         0.1183000000E+09     0.1000000000E+03
         0.1184000000E+09     0.1000000000E+03
         0.1185000000E+09     0.1000000000E+03
         0.1186000000E+09     0.1000000000E+03
         0.1187000000E+09     0.1000000000E+03
         0.1188000000E+09     0.1000000000E+03
         0.1189000000E+09     0.1000000000E+03
         0.1189000000E+09     0.1000000000E+03
         0.1190000000E+09     0.1000000000E+03
         0.1191000000E+09     0.1000000000E+03
         0.1192000000E+09     0.1000000000E+03
         0.1193000000E+09     0.1000000000E+03
         0.1194000000E+09     0.1000000000E+03
         0.1195000000E+09     0.1000000000E+03
         0.1195000000E+09     0.1000000000E+03
         0.1196000000E+09     0.1000000000E+03
         0.1197000000E+09     0.1000000000E+03
         0.1198000000E+09     0.1000000000E+03
         0.1199000000E+09     0.1000000000E+03
         0.1200000000E+09     0.1000000000E+03
         0.1201000000E+09     0.1000000000E+03
         0.1201000000E+09     0.1000000000E+03
         0.1202000000E+09     0.1000000000E+03
         0.1203000000E+09     0.1000000000E+03
         0.1204000000E+09     0.1000000000E+03
         0.1205000000E+09     0.1000000000E+03
         0.1206000000E+09     0.1000000000E+03
         0.1207000000E+09     0.1000000000E+03
         0.1208000000E+09     0.1000000000E+03
         0.1209000000E+09     0.1000000000E+03
         0.1210000000E+09     0.1000000000E+03
         0.1211000000E+09     0.1000000000E+03
         0.1211000000E+09     0.1000000000E+03
         0.1212000000E+09     0.1000000000E+03
         0.1213000000E+09     0.1000000000E+03
         0.1214000000E+09     0.1000000000E+03
         0.1215000000E+09     0.1000000000E+03
         0.1216000000E+09     0.1000000000E+03
         0.1217000000E+09     0.1000000000E+03
         0.1217000000E+09     0.1000000000E+03
         0.1218000000E+09     0.1000000000E+03
         0.1219000000E+09     0.1000000000E+03
         0.1220000000E+09     0.1000000000E+03
         0.1221000000E+09     0.1000000000E+03
         0.1222000000E+09     0.1000000000E+03
         0.1223000000E+09     0.1000000000E+03
         0.1223000000E+09     0.1000000000E+03
         0.1224000000E+09     0.1000000000E+03
         0.1225000000E+09     0.1000000000E+03
         0.1226000000E+09     0.1000000000E+03
         0.1227000000E+09     0.1000000000E+03
         0.1228000000E+09     0.1000000000E+03
         0.1229000000E+09     0.1000000000E+03
         0.1230000000E+09     0.1000000000E+03
         0.1231000000E+09     0.1000000000E+03
         0.1232000000E+09     0.1000000000E+03
         0.1233000000E+09     0.1000000000E+03
         0.1233000000E+09     0.1000000000E+03
         0.1234000000E+09     0.1000000000E+03
         0.1235000000E+09     0.1000000000E+03
         0.1236000000E+09     0.1000000000E+03
         0.1237000000E+09     0.1000000000E+03
         0.1238000000E+09     0.1000000000E+03
         0.1239000000E+09     0.1000000000E+03
         0.1239000000E+09     0.1000000000E+03
         0.1240000000E+09     0.1000000000E+03
         0.1241000000E+09     0.1000000000E+03
         0.1242000000E+09     0.1000000000E+03
         0.1243000000E+09     0.1000000000E+03
         0.1244000000E+09     0.1000000000E+03
         0.1245000000E+09     0.1000000000E+03
         0.1245000000E+09     0.1000000000E+03
         0.1246000000E+09     0.1000000000E+03
         0.1247000000E+09     0.1000000000E+03
         0.1248000000E+09     0.1000000000E+03
         0.1249000000E+09     0.1000000000E+03
         0.1250000000E+09     0.1000000000E+03
         0.1251000000E+09     0.1000000000E+03
         0.1252000000E+09     0.1000000000E+03
         0.1253000000E+09     0.1000000000E+03
         0.1254000000E+09     0.1000000000E+03
         0.1255000000E+09     0.1000000000E+03
         0.1255000000E+09     0.1000000000E+03
         0.1256000000E+09     0.1000000000E+03
         0.1257000000E+09     0.1000000000E+03
         0.1258000000E+09     0.1000000000E+03
         0.1259000000E+09     0.1000000000E+03
         0.1260000000E+09     0.1000000000E+03



            AREAL INFILTRATION RATE
 READING ON UNIT   19 WITH FORMAT: (10F4.0)            

            1           2           3           4           5           6           7           8           9          10
 ........................................................................................................................
   1   1.0000E-10  2.0000E-10   0.000       0.000       0.000       0.000       0.000       0.000       0.000       0.000    
   2   2.0000E-10  1.0000E-10  2.0000E-10   0.000       0.000      8.0000E-10  8.0000E-10  5.0000E-10   0.000       0.000    
   3    0.000      5.0000E-10  1.0000E-10  1.0000E-10  8.0000E-10  8.0000E-10  5.0000E-10  5.0000E-10   0.000       0.000    
   4   8.0000E-10  5.0000E-10  1.0000E-10  1.0000E-10  1.0000E-10  1.0000E-10  1.0000E-10  1.0000E-10  2.0000E-10   0.000    
   5   8.0000E-10  5.0000E-10  1.0000E-10  1.0000E-10  1.0000E-10  1.0000E-10  1.0000E-10  1.0000E-10  1.0000E-10  1.0000E-10
   6   8.0000E-10  5.0000E-10  5.0000E-10  2.0000E-10  2.0000E-10  1.0000E-10  1.0000E-10  1.0000E-10  1.0000E-10  5.0000E-10
   7   8.0000E-10  5.0000E-10  5.0000E-10  2.0000E-10  2.0000E-10  1.0000E-10  1.0000E-10  2.0000E-10  2.0000E-10   0.000    
   8    0.000      5.0000E-10  5.0000E-10  2.0000E-10  2.0000E-10  1.0000E-10  1.0000E-10  2.0000E-10  5.0000E-10   0.000    
   9    0.000      5.0000E-10  5.0000E-10  2.0000E-10  2.0000E-10  1.0000E-10  1.0000E-10  2.0000E-10  5.0000E-10   0.000    
  10    0.000      5.0000E-10  5.0000E-10  2.0000E-10  2.0000E-10  1.0000E-10  1.0000E-10  2.0000E-10  5.0000E-10  8.0000E-10
  11    0.000      1.0000E-10  1.0000E-10  1.0000E-10  1.0000E-10  1.0000E-10  1.0000E-10  2.0000E-10  5.0000E-10   0.000    
  12   1.0000E-10  1.0000E-10  1.0000E-10  1.0000E-10  1.0000E-10  1.0000E-10  1.0000E-10  1.0000E-10  2.0000E-10   0.000    
  13   1.0000E-10  1.0000E-10  2.0000E-10  2.0000E-10  2.0000E-10  2.0000E-10  2.0000E-10  1.0000E-10  1.0000E-10   0.000    
  14    0.000      2.0000E-10  5.0000E-10  5.0000E-10  5.0000E-10  5.0000E-10  5.0000E-10  2.0000E-10  1.0000E-10   0.000    
  15    0.000       0.000      8.0000E-10  8.0000E-10  8.0000E-10  8.0000E-10   0.000       0.000       0.000       0.000    

                  ET RATE =  1.000000E-08

      ET EXTINCTION DEPTH =  0.500000    

 EXTINCTION WATER CONTENT =  0.200000    

EXTINCTION WATER CONTENT FOR CELL AT ROW     1, COLUMN     1 IS LESS THAN RESIDUAL WATER CONTENT-- SETTING EXTINCTION WATER CONTENT EQUAL TO RESIDUAL WATER CONTENT

EXTINCTION WATER CONTENT FOR CELL AT ROW     1, COLUMN     2 IS LESS THAN RESIDUAL WATER CONTENT-- SETTING EXTINCTION WATER CONTENT EQUAL TO RESIDUAL WATER CONTENT

EXTINCTION WATER CONTENT FOR CELL AT ROW     2, COLUMN     1 IS LESS THAN RESIDUAL WATER CONTENT-- SETTING EXTINCTION WATER CONTENT EQUAL TO RESIDUAL WATER CONTENT

EXTINCTION WATER CONTENT FOR CELL AT ROW     2, COLUMN     2 IS LESS THAN RESIDUAL WATER CONTENT-- SETTING EXTINCTION WATER CONTENT EQUAL TO RESIDUAL WATER CONTENT

EXTINCTION WATER CONTENT FOR CELL AT ROW     2, COLUMN     3 IS LESS THAN RESIDUAL WATER CONTENT-- SETTING EXTINCTION WATER CONTENT EQUAL TO RESIDUAL WATER CONTENT

EXTINCTION WATER CONTENT FOR CELL AT ROW     2, COLUMN     6 IS LESS THAN RESIDUAL WATER CONTENT-- SETTING EXTINCTION WATER CONTENT EQUAL TO RESIDUAL WATER CONTENT

EXTINCTION WATER CONTENT FOR CELL AT ROW     2, COLUMN     7 IS LESS THAN RESIDUAL WATER CONTENT-- SETTING EXTINCTION WATER CONTENT EQUAL TO RESIDUAL WATER CONTENT

EXTINCTION WATER CONTENT FOR CELL AT ROW     2, COLUMN     8 IS LESS THAN RESIDUAL WATER CONTENT-- SETTING EXTINCTION WATER CONTENT EQUAL TO RESIDUAL WATER CONTENT

EXTINCTION WATER CONTENT FOR CELL AT ROW     3, COLUMN     2 IS LESS THAN RESIDUAL WATER CONTENT-- SETTING EXTINCTION WATER CONTENT EQUAL TO RESIDUAL WATER CONTENT

EXTINCTION WATER CONTENT FOR CELL AT ROW     3, COLUMN     3 IS LESS THAN RESIDUAL WATER CONTENT-- SETTING EXTINCTION WATER CONTENT EQUAL TO RESIDUAL WATER CONTENT

EXTINCTION WATER CONTENT FOR CELL AT ROW     3, COLUMN     4 IS LESS THAN RESIDUAL WATER CONTENT-- SETTING EXTINCTION WATER CONTENT EQUAL TO RESIDUAL WATER CONTENT

EXTINCTION WATER CONTENT FOR CELL AT ROW     3, COLUMN     5 IS LESS THAN RESIDUAL WATER CONTENT-- SETTING EXTINCTION WATER CONTENT EQUAL TO RESIDUAL WATER CONTENT

EXTINCTION WATER CONTENT FOR CELL AT ROW     3, COLUMN     6 IS LESS THAN RESIDUAL WATER CONTENT-- SETTING EXTINCTION WATER CONTENT EQUAL TO RESIDUAL WATER CONTENT

EXTINCTION WATER CONTENT FOR CELL AT ROW     3, COLUMN     7 IS LESS THAN RESIDUAL WATER CONTENT-- SETTING EXTINCTION WATER CONTENT EQUAL TO RESIDUAL WATER CONTENT

EXTINCTION WATER CONTENT FOR CELL AT ROW     3, COLUMN     8 IS LESS THAN RESIDUAL WATER CONTENT-- SETTING EXTINCTION WATER CONTENT EQUAL TO RESIDUAL WATER CONTENT

EXTINCTION WATER CONTENT FOR CELL AT ROW     4, COLUMN     1 IS LESS THAN RESIDUAL WATER CONTENT-- SETTING EXTINCTION WATER CONTENT EQUAL TO RESIDUAL WATER CONTENT

EXTINCTION WATER CONTENT FOR CELL AT ROW     4, COLUMN     2 IS LESS THAN RESIDUAL WATER CONTENT-- SETTING EXTINCTION WATER CONTENT EQUAL TO RESIDUAL WATER CONTENT

EXTINCTION WATER CONTENT FOR CELL AT ROW     4, COLUMN     3 IS LESS THAN RESIDUAL WATER CONTENT-- SETTING EXTINCTION WATER CONTENT EQUAL TO RESIDUAL WATER CONTENT

EXTINCTION WATER CONTENT FOR CELL AT ROW     4, COLUMN     4 IS LESS THAN RESIDUAL WATER CONTENT-- SETTING EXTINCTION WATER CONTENT EQUAL TO RESIDUAL WATER CONTENT

EXTINCTION WATER CONTENT FOR CELL AT ROW     4, COLUMN     5 IS LESS THAN RESIDUAL WATER CONTENT-- SETTING EXTINCTION WATER CONTENT EQUAL TO RESIDUAL WATER CONTENT

EXTINCTION WATER CONTENT FOR CELL AT ROW     4, COLUMN     6 IS LESS THAN RESIDUAL WATER CONTENT-- SETTING EXTINCTION WATER CONTENT EQUAL TO RESIDUAL WATER CONTENT

EXTINCTION WATER CONTENT FOR CELL AT ROW     4, COLUMN     7 IS LESS THAN RESIDUAL WATER CONTENT-- SETTING EXTINCTION WATER CONTENT EQUAL TO RESIDUAL WATER CONTENT

EXTINCTION WATER CONTENT FOR CELL AT ROW     4, COLUMN     8 IS LESS THAN RESIDUAL WATER CONTENT-- SETTING EXTINCTION WATER CONTENT EQUAL TO RESIDUAL WATER CONTENT

EXTINCTION WATER CONTENT FOR CELL AT ROW     4, COLUMN     9 IS LESS THAN RESIDUAL WATER CONTENT-- SETTING EXTINCTION WATER CONTENT EQUAL TO RESIDUAL WATER CONTENT

EXTINCTION WATER CONTENT FOR CELL AT ROW     5, COLUMN     1 IS LESS THAN RESIDUAL WATER CONTENT-- SETTING EXTINCTION WATER CONTENT EQUAL TO RESIDUAL WATER CONTENT

EXTINCTION WATER CONTENT FOR CELL AT ROW     5, COLUMN     2 IS LESS THAN RESIDUAL WATER CONTENT-- SETTING EXTINCTION WATER CONTENT EQUAL TO RESIDUAL WATER CONTENT

EXTINCTION WATER CONTENT FOR CELL AT ROW     5, COLUMN     3 IS LESS THAN RESIDUAL WATER CONTENT-- SETTING EXTINCTION WATER CONTENT EQUAL TO RESIDUAL WATER CONTENT

EXTINCTION WATER CONTENT FOR CELL AT ROW     5, COLUMN     4 IS LESS THAN RESIDUAL WATER CONTENT-- SETTING EXTINCTION WATER CONTENT EQUAL TO RESIDUAL WATER CONTENT

EXTINCTION WATER CONTENT FOR CELL AT ROW     5, COLUMN     5 IS LESS THAN RESIDUAL WATER CONTENT-- SETTING EXTINCTION WATER CONTENT EQUAL TO RESIDUAL WATER CONTENT

EXTINCTION WATER CONTENT FOR CELL AT ROW     5, COLUMN     6 IS LESS THAN RESIDUAL WATER CONTENT-- SETTING EXTINCTION WATER CONTENT EQUAL TO RESIDUAL WATER CONTENT

EXTINCTION WATER CONTENT FOR CELL AT ROW     5, COLUMN     7 IS LESS THAN RESIDUAL WATER CONTENT-- SETTING EXTINCTION WATER CONTENT EQUAL TO RESIDUAL WATER CONTENT

EXTINCTION WATER CONTENT FOR CELL AT ROW     5, COLUMN     8 IS LESS THAN RESIDUAL WATER CONTENT-- SETTING EXTINCTION WATER CONTENT EQUAL TO RESIDUAL WATER CONTENT

EXTINCTION WATER CONTENT FOR CELL AT ROW     5, COLUMN     9 IS LESS THAN RESIDUAL WATER CONTENT-- SETTING EXTINCTION WATER CONTENT EQUAL TO RESIDUAL WATER CONTENT

EXTINCTION WATER CONTENT FOR CELL AT ROW     5, COLUMN    10 IS LESS THAN RESIDUAL WATER CONTENT-- SETTING EXTINCTION WATER CONTENT EQUAL TO RESIDUAL WATER CONTENT

EXTINCTION WATER CONTENT FOR CELL AT ROW     6, COLUMN     1 IS LESS THAN RESIDUAL WATER CONTENT-- SETTING EXTINCTION WATER CONTENT EQUAL TO RESIDUAL WATER CONTENT

EXTINCTION WATER CONTENT FOR CELL AT ROW     6, COLUMN     2 IS LESS THAN RESIDUAL WATER CONTENT-- SETTING EXTINCTION WATER CONTENT EQUAL TO RESIDUAL WATER CONTENT

EXTINCTION WATER CONTENT FOR CELL AT ROW     6, COLUMN     3 IS LESS THAN RESIDUAL WATER CONTENT-- SETTING EXTINCTION WATER CONTENT EQUAL TO RESIDUAL WATER CONTENT

EXTINCTION WATER CONTENT FOR CELL AT ROW     6, COLUMN     4 IS LESS THAN RESIDUAL WATER CONTENT-- SETTING EXTINCTION WATER CONTENT EQUAL TO RESIDUAL WATER CONTENT

EXTINCTION WATER CONTENT FOR CELL AT ROW     6, COLUMN     5 IS LESS THAN RESIDUAL WATER CONTENT-- SETTING EXTINCTION WATER CONTENT EQUAL TO RESIDUAL WATER CONTENT

EXTINCTION WATER CONTENT FOR CELL AT ROW     6, COLUMN     6 IS LESS THAN RESIDUAL WATER CONTENT-- SETTING EXTINCTION WATER CONTENT EQUAL TO RESIDUAL WATER CONTENT

EXTINCTION WATER CONTENT FOR CELL AT ROW     6, COLUMN     7 IS LESS THAN RESIDUAL WATER CONTENT-- SETTING EXTINCTION WATER CONTENT EQUAL TO RESIDUAL WATER CONTENT

EXTINCTION WATER CONTENT FOR CELL AT ROW     6, COLUMN     8 IS LESS THAN RESIDUAL WATER CONTENT-- SETTING EXTINCTION WATER CONTENT EQUAL TO RESIDUAL WATER CONTENT

EXTINCTION WATER CONTENT FOR CELL AT ROW     6, COLUMN     9 IS LESS THAN RESIDUAL WATER CONTENT-- SETTING EXTINCTION WATER CONTENT EQUAL TO RESIDUAL WATER CONTENT

EXTINCTION WATER CONTENT FOR CELL AT ROW     6, COLUMN    10 IS LESS THAN RESIDUAL WATER CONTENT-- SETTING EXTINCTION WATER CONTENT EQUAL TO RESIDUAL WATER CONTENT

EXTINCTION WATER CONTENT FOR CELL AT ROW     7, COLUMN     1 IS LESS THAN RESIDUAL WATER CONTENT-- SETTING EXTINCTION WATER CONTENT EQUAL TO RESIDUAL WATER CONTENT

EXTINCTION WATER CONTENT FOR CELL AT ROW     7, COLUMN     2 IS LESS THAN RESIDUAL WATER CONTENT-- SETTING EXTINCTION WATER CONTENT EQUAL TO RESIDUAL WATER CONTENT

EXTINCTION WATER CONTENT FOR CELL AT ROW     7, COLUMN     3 IS LESS THAN RESIDUAL WATER CONTENT-- SETTING EXTINCTION WATER CONTENT EQUAL TO RESIDUAL WATER CONTENT

EXTINCTION WATER CONTENT FOR CELL AT ROW     7, COLUMN     4 IS LESS THAN RESIDUAL WATER CONTENT-- SETTING EXTINCTION WATER CONTENT EQUAL TO RESIDUAL WATER CONTENT

EXTINCTION WATER CONTENT FOR CELL AT ROW     7, COLUMN     5 IS LESS THAN RESIDUAL WATER CONTENT-- SETTING EXTINCTION WATER CONTENT EQUAL TO RESIDUAL WATER CONTENT

EXTINCTION WATER CONTENT FOR CELL AT ROW     7, COLUMN     6 IS LESS THAN RESIDUAL WATER CONTENT-- SETTING EXTINCTION WATER CONTENT EQUAL TO RESIDUAL WATER CONTENT

EXTINCTION WATER CONTENT FOR CELL AT ROW     7, COLUMN     7 IS LESS THAN RESIDUAL WATER CONTENT-- SETTING EXTINCTION WATER CONTENT EQUAL TO RESIDUAL WATER CONTENT

EXTINCTION WATER CONTENT FOR CELL AT ROW     7, COLUMN     8 IS LESS THAN RESIDUAL WATER CONTENT-- SETTING EXTINCTION WATER CONTENT EQUAL TO RESIDUAL WATER CONTENT

EXTINCTION WATER CONTENT FOR CELL AT ROW     7, COLUMN     9 IS LESS THAN RESIDUAL WATER CONTENT-- SETTING EXTINCTION WATER CONTENT EQUAL TO RESIDUAL WATER CONTENT

EXTINCTION WATER CONTENT FOR CELL AT ROW     8, COLUMN     2 IS LESS THAN RESIDUAL WATER CONTENT-- SETTING EXTINCTION WATER CONTENT EQUAL TO RESIDUAL WATER CONTENT

EXTINCTION WATER CONTENT FOR CELL AT ROW     8, COLUMN     3 IS LESS THAN RESIDUAL WATER CONTENT-- SETTING EXTINCTION WATER CONTENT EQUAL TO RESIDUAL WATER CONTENT

EXTINCTION WATER CONTENT FOR CELL AT ROW     8, COLUMN     4 IS LESS THAN RESIDUAL WATER CONTENT-- SETTING EXTINCTION WATER CONTENT EQUAL TO RESIDUAL WATER CONTENT

EXTINCTION WATER CONTENT FOR CELL AT ROW     8, COLUMN     5 IS LESS THAN RESIDUAL WATER CONTENT-- SETTING EXTINCTION WATER CONTENT EQUAL TO RESIDUAL WATER CONTENT

EXTINCTION WATER CONTENT FOR CELL AT ROW     8, COLUMN     6 IS LESS THAN RESIDUAL WATER CONTENT-- SETTING EXTINCTION WATER CONTENT EQUAL TO RESIDUAL WATER CONTENT

EXTINCTION WATER CONTENT FOR CELL AT ROW     8, COLUMN     7 IS LESS THAN RESIDUAL WATER CONTENT-- SETTING EXTINCTION WATER CONTENT EQUAL TO RESIDUAL WATER CONTENT

EXTINCTION WATER CONTENT FOR CELL AT ROW     8, COLUMN     8 IS LESS THAN RESIDUAL WATER CONTENT-- SETTING EXTINCTION WATER CONTENT EQUAL TO RESIDUAL WATER CONTENT

EXTINCTION WATER CONTENT FOR CELL AT ROW     8, COLUMN     9 IS LESS THAN RESIDUAL WATER CONTENT-- SETTING EXTINCTION WATER CONTENT EQUAL TO RESIDUAL WATER CONTENT

EXTINCTION WATER CONTENT FOR CELL AT ROW     9, COLUMN     2 IS LESS THAN RESIDUAL WATER CONTENT-- SETTING EXTINCTION WATER CONTENT EQUAL TO RESIDUAL WATER CONTENT

EXTINCTION WATER CONTENT FOR CELL AT ROW     9, COLUMN     3 IS LESS THAN RESIDUAL WATER CONTENT-- SETTING EXTINCTION WATER CONTENT EQUAL TO RESIDUAL WATER CONTENT

EXTINCTION WATER CONTENT FOR CELL AT ROW     9, COLUMN     4 IS LESS THAN RESIDUAL WATER CONTENT-- SETTING EXTINCTION WATER CONTENT EQUAL TO RESIDUAL WATER CONTENT

EXTINCTION WATER CONTENT FOR CELL AT ROW     9, COLUMN     5 IS LESS THAN RESIDUAL WATER CONTENT-- SETTING EXTINCTION WATER CONTENT EQUAL TO RESIDUAL WATER CONTENT

EXTINCTION WATER CONTENT FOR CELL AT ROW     9, COLUMN     6 IS LESS THAN RESIDUAL WATER CONTENT-- SETTING EXTINCTION WATER CONTENT EQUAL TO RESIDUAL WATER CONTENT

EXTINCTION WATER CONTENT FOR CELL AT ROW     9, COLUMN     7 IS LESS THAN RESIDUAL WATER CONTENT-- SETTING EXTINCTION WATER CONTENT EQUAL TO RESIDUAL WATER CONTENT

EXTINCTION WATER CONTENT FOR CELL AT ROW     9, COLUMN     8 IS LESS THAN RESIDUAL WATER CONTENT-- SETTING EXTINCTION WATER CONTENT EQUAL TO RESIDUAL WATER CONTENT

EXTINCTION WATER CONTENT FOR CELL AT ROW     9, COLUMN     9 IS LESS THAN RESIDUAL WATER CONTENT-- SETTING EXTINCTION WATER CONTENT EQUAL TO RESIDUAL WATER CONTENT

EXTINCTION WATER CONTENT FOR CELL AT ROW    10, COLUMN     2 IS LESS THAN RESIDUAL WATER CONTENT-- SETTING EXTINCTION WATER CONTENT EQUAL TO RESIDUAL WATER CONTENT

EXTINCTION WATER CONTENT FOR CELL AT ROW    10, COLUMN     3 IS LESS THAN RESIDUAL WATER CONTENT-- SETTING EXTINCTION WATER CONTENT EQUAL TO RESIDUAL WATER CONTENT

EXTINCTION WATER CONTENT FOR CELL AT ROW    10, COLUMN     4 IS LESS THAN RESIDUAL WATER CONTENT-- SETTING EXTINCTION WATER CONTENT EQUAL TO RESIDUAL WATER CONTENT

EXTINCTION WATER CONTENT FOR CELL AT ROW    10, COLUMN     5 IS LESS THAN RESIDUAL WATER CONTENT-- SETTING EXTINCTION WATER CONTENT EQUAL TO RESIDUAL WATER CONTENT

EXTINCTION WATER CONTENT FOR CELL AT ROW    10, COLUMN     6 IS LESS THAN RESIDUAL WATER CONTENT-- SETTING EXTINCTION WATER CONTENT EQUAL TO RESIDUAL WATER CONTENT

EXTINCTION WATER CONTENT FOR CELL AT ROW    10, COLUMN     7 IS LESS THAN RESIDUAL WATER CONTENT-- SETTING EXTINCTION WATER CONTENT EQUAL TO RESIDUAL WATER CONTENT

EXTINCTION WATER CONTENT FOR CELL AT ROW    10, COLUMN     8 IS LESS THAN RESIDUAL WATER CONTENT-- SETTING EXTINCTION WATER CONTENT EQUAL TO RESIDUAL WATER CONTENT

EXTINCTION WATER CONTENT FOR CELL AT ROW    10, COLUMN     9 IS LESS THAN RESIDUAL WATER CONTENT-- SETTING EXTINCTION WATER CONTENT EQUAL TO RESIDUAL WATER CONTENT

EXTINCTION WATER CONTENT FOR CELL AT ROW    10, COLUMN    10 IS LESS THAN RESIDUAL WATER CONTENT-- SETTING EXTINCTION WATER CONTENT EQUAL TO RESIDUAL WATER CONTENT

EXTINCTION WATER CONTENT FOR CELL AT ROW    11, COLUMN     2 IS LESS THAN RESIDUAL WATER CONTENT-- SETTING EXTINCTION WATER CONTENT EQUAL TO RESIDUAL WATER CONTENT

EXTINCTION WATER CONTENT FOR CELL AT ROW    11, COLUMN     3 IS LESS THAN RESIDUAL WATER CONTENT-- SETTING EXTINCTION WATER CONTENT EQUAL TO RESIDUAL WATER CONTENT

EXTINCTION WATER CONTENT FOR CELL AT ROW    11, COLUMN     4 IS LESS THAN RESIDUAL WATER CONTENT-- SETTING EXTINCTION WATER CONTENT EQUAL TO RESIDUAL WATER CONTENT

EXTINCTION WATER CONTENT FOR CELL AT ROW    11, COLUMN     5 IS LESS THAN RESIDUAL WATER CONTENT-- SETTING EXTINCTION WATER CONTENT EQUAL TO RESIDUAL WATER CONTENT

EXTINCTION WATER CONTENT FOR CELL AT ROW    11, COLUMN     6 IS LESS THAN RESIDUAL WATER CONTENT-- SETTING EXTINCTION WATER CONTENT EQUAL TO RESIDUAL WATER CONTENT

EXTINCTION WATER CONTENT FOR CELL AT ROW    11, COLUMN     7 IS LESS THAN RESIDUAL WATER CONTENT-- SETTING EXTINCTION WATER CONTENT EQUAL TO RESIDUAL WATER CONTENT

EXTINCTION WATER CONTENT FOR CELL AT ROW    11, COLUMN     8 IS LESS THAN RESIDUAL WATER CONTENT-- SETTING EXTINCTION WATER CONTENT EQUAL TO RESIDUAL WATER CONTENT

EXTINCTION WATER CONTENT FOR CELL AT ROW    11, COLUMN     9 IS LESS THAN RESIDUAL WATER CONTENT-- SETTING EXTINCTION WATER CONTENT EQUAL TO RESIDUAL WATER CONTENT

EXTINCTION WATER CONTENT FOR CELL AT ROW    12, COLUMN     1 IS LESS THAN RESIDUAL WATER CONTENT-- SETTING EXTINCTION WATER CONTENT EQUAL TO RESIDUAL WATER CONTENT

EXTINCTION WATER CONTENT FOR CELL AT ROW    12, COLUMN     2 IS LESS THAN RESIDUAL WATER CONTENT-- SETTING EXTINCTION WATER CONTENT EQUAL TO RESIDUAL WATER CONTENT

EXTINCTION WATER CONTENT FOR CELL AT ROW    12, COLUMN     3 IS LESS THAN RESIDUAL WATER CONTENT-- SETTING EXTINCTION WATER CONTENT EQUAL TO RESIDUAL WATER CONTENT

EXTINCTION WATER CONTENT FOR CELL AT ROW    12, COLUMN     4 IS LESS THAN RESIDUAL WATER CONTENT-- SETTING EXTINCTION WATER CONTENT EQUAL TO RESIDUAL WATER CONTENT

EXTINCTION WATER CONTENT FOR CELL AT ROW    12, COLUMN     5 IS LESS THAN RESIDUAL WATER CONTENT-- SETTING EXTINCTION WATER CONTENT EQUAL TO RESIDUAL WATER CONTENT

EXTINCTION WATER CONTENT FOR CELL AT ROW    12, COLUMN     6 IS LESS THAN RESIDUAL WATER CONTENT-- SETTING EXTINCTION WATER CONTENT EQUAL TO RESIDUAL WATER CONTENT

EXTINCTION WATER CONTENT FOR CELL AT ROW    12, COLUMN     7 IS LESS THAN RESIDUAL WATER CONTENT-- SETTING EXTINCTION WATER CONTENT EQUAL TO RESIDUAL WATER CONTENT

EXTINCTION WATER CONTENT FOR CELL AT ROW    12, COLUMN     8 IS LESS THAN RESIDUAL WATER CONTENT-- SETTING EXTINCTION WATER CONTENT EQUAL TO RESIDUAL WATER CONTENT

EXTINCTION WATER CONTENT FOR CELL AT ROW    12, COLUMN     9 IS LESS THAN RESIDUAL WATER CONTENT-- SETTING EXTINCTION WATER CONTENT EQUAL TO RESIDUAL WATER CONTENT

EXTINCTION WATER CONTENT FOR CELL AT ROW    13, COLUMN     1 IS LESS THAN RESIDUAL WATER CONTENT-- SETTING EXTINCTION WATER CONTENT EQUAL TO RESIDUAL WATER CONTENT

EXTINCTION WATER CONTENT FOR CELL AT ROW    13, COLUMN     2 IS LESS THAN RESIDUAL WATER CONTENT-- SETTING EXTINCTION WATER CONTENT EQUAL TO RESIDUAL WATER CONTENT

EXTINCTION WATER CONTENT FOR CELL AT ROW    13, COLUMN     3 IS LESS THAN RESIDUAL WATER CONTENT-- SETTING EXTINCTION WATER CONTENT EQUAL TO RESIDUAL WATER CONTENT

EXTINCTION WATER CONTENT FOR CELL AT ROW    13, COLUMN     4 IS LESS THAN RESIDUAL WATER CONTENT-- SETTING EXTINCTION WATER CONTENT EQUAL TO RESIDUAL WATER CONTENT

EXTINCTION WATER CONTENT FOR CELL AT ROW    13, COLUMN     5 IS LESS THAN RESIDUAL WATER CONTENT-- SETTING EXTINCTION WATER CONTENT EQUAL TO RESIDUAL WATER CONTENT

EXTINCTION WATER CONTENT FOR CELL AT ROW    13, COLUMN     6 IS LESS THAN RESIDUAL WATER CONTENT-- SETTING EXTINCTION WATER CONTENT EQUAL TO RESIDUAL WATER CONTENT

EXTINCTION WATER CONTENT FOR CELL AT ROW    13, COLUMN     7 IS LESS THAN RESIDUAL WATER CONTENT-- SETTING EXTINCTION WATER CONTENT EQUAL TO RESIDUAL WATER CONTENT

EXTINCTION WATER CONTENT FOR CELL AT ROW    13, COLUMN     8 IS LESS THAN RESIDUAL WATER CONTENT-- SETTING EXTINCTION WATER CONTENT EQUAL TO RESIDUAL WATER CONTENT

EXTINCTION WATER CONTENT FOR CELL AT ROW    13, COLUMN     9 IS LESS THAN RESIDUAL WATER CONTENT-- SETTING EXTINCTION WATER CONTENT EQUAL TO RESIDUAL WATER CONTENT

EXTINCTION WATER CONTENT FOR CELL AT ROW    14, COLUMN     2 IS LESS THAN RESIDUAL WATER CONTENT-- SETTING EXTINCTION WATER CONTENT EQUAL TO RESIDUAL WATER CONTENT

EXTINCTION WATER CONTENT FOR CELL AT ROW    14, COLUMN     3 IS LESS THAN RESIDUAL WATER CONTENT-- SETTING EXTINCTION WATER CONTENT EQUAL TO RESIDUAL WATER CONTENT

EXTINCTION WATER CONTENT FOR CELL AT ROW    14, COLUMN     4 IS LESS THAN RESIDUAL WATER CONTENT-- SETTING EXTINCTION WATER CONTENT EQUAL TO RESIDUAL WATER CONTENT

EXTINCTION WATER CONTENT FOR CELL AT ROW    14, COLUMN     5 IS LESS THAN RESIDUAL WATER CONTENT-- SETTING EXTINCTION WATER CONTENT EQUAL TO RESIDUAL WATER CONTENT

EXTINCTION WATER CONTENT FOR CELL AT ROW    14, COLUMN     6 IS LESS THAN RESIDUAL WATER CONTENT-- SETTING EXTINCTION WATER CONTENT EQUAL TO RESIDUAL WATER CONTENT

EXTINCTION WATER CONTENT FOR CELL AT ROW    14, COLUMN     7 IS LESS THAN RESIDUAL WATER CONTENT-- SETTING EXTINCTION WATER CONTENT EQUAL TO RESIDUAL WATER CONTENT

EXTINCTION WATER CONTENT FOR CELL AT ROW    14, COLUMN     8 IS LESS THAN RESIDUAL WATER CONTENT-- SETTING EXTINCTION WATER CONTENT EQUAL TO RESIDUAL WATER CONTENT

EXTINCTION WATER CONTENT FOR CELL AT ROW    14, COLUMN     9 IS LESS THAN RESIDUAL WATER CONTENT-- SETTING EXTINCTION WATER CONTENT EQUAL TO RESIDUAL WATER CONTENT

EXTINCTION WATER CONTENT FOR CELL AT ROW    15, COLUMN     3 IS LESS THAN RESIDUAL WATER CONTENT-- SETTING EXTINCTION WATER CONTENT EQUAL TO RESIDUAL WATER CONTENT

EXTINCTION WATER CONTENT FOR CELL AT ROW    15, COLUMN     4 IS LESS THAN RESIDUAL WATER CONTENT-- SETTING EXTINCTION WATER CONTENT EQUAL TO RESIDUAL WATER CONTENT

EXTINCTION WATER CONTENT FOR CELL AT ROW    15, COLUMN     5 IS LESS THAN RESIDUAL WATER CONTENT-- SETTING EXTINCTION WATER CONTENT EQUAL TO RESIDUAL WATER CONTENT

EXTINCTION WATER CONTENT FOR CELL AT ROW    15, COLUMN     6 IS LESS THAN RESIDUAL WATER CONTENT-- SETTING EXTINCTION WATER CONTENT EQUAL TO RESIDUAL WATER CONTENT

       AIR ENTRY PRESSURE =  -1.10000    

            ROOT PRESSURE =  -75.0000    

            ROOT ACTIVITY =   1.00000    
 # AG segment list

 PROCESSING SEGMENT LIST

 FINISHED READING SEGMENT LIST
 # AG well list

 PROCESSING WELL LIST

 LAYER   ROW   COL   MAX STRESS RATE         
 --------------------------------------------
      1      1      6      4      -100.0    
      2      1      6      5      -100.0    
      3      1      7      4      -100.0    
      4      1      7      5      -100.0    
      5      1      8      4      -100.0    
      6      1      8      5      -100.0    

 FINISHED READING WELL LIST

      6 WELLS

 PROCESSING AG STRESS PERIOD DATA
 # AG stress period

 READING AG STRESS PERIOD DATA

 READING IRRIGATION SEGMENT

 READING IRRIGATION WELL

 READING SUPPLEMENTAL WELL

 END PROCESSING AG STRESS PERIOD DATA OPTIONS
 
 SOLVING FOR HEAD 
                                                   Max.-Head-Change                         Max.-Flux-Residual
  Residual-Control   Outer-Iter.   Inner-Iter.     Column Row Layer    Maximum-Head-Change  Column Row Layer    Maximum-Flux-Residual          L2-NORM 
          0                 1           6             2    2     1      -0.3091902076E+02       3    3    1        -0.3387725593E+01      0.9438782903E+01
          0                 2           6             1    1     1      -0.3160283285E+02       1   13    1        -0.6317714513E+02      0.6341706167E+02
          0                 3           5             1    1     1      -0.1218344615E+01       1   13    1        -0.2090503782E+01      0.2852988571E+01
          0                 4           5             5   13     1      -0.3531913066E+00       5   13    1        -0.5902045538E+00      0.6060815874E+00
          0                 5           4             5   14     1       0.5787736087E-01       5   13    1         0.2547334864E-01      0.4765464180E-01
          0                 6           2             5   14     1      -0.2238408348E-02       5   12    1        -0.2373336474E-02      0.3893753341E-02
          0                 7           1             5   12     1       0.4404395645E-04       5   12    1         0.1191690449E-03      0.1657812993E-03

    ------------------------------------------------
       NWT REQUIRED            7 OUTER ITERATIONS 
       AND A TOTAL OF         29 INNER ITERATIONS.
    ------------------------------------------------

 OUTPUT CONTROL FOR STRESS PERIOD    1   TIME STEP    1
    PRINT BUDGET
    PRINT HEAD FOR ALL LAYERS
    SAVE BUDGET
    SAVE HEAD FOR ALL LAYERS
 UBDSV2 SAVING "   CONSTANT HEAD" ON UNIT 102 AT TIME STEP  1, STRESS PERIOD   1
 UBDSV1 SAVING "FLOW RIGHT FACE " ON UNIT 102 AT TIME STEP  1, STRESS PERIOD   1
 UBDSV1 SAVING "FLOW FRONT FACE " ON UNIT 102 AT TIME STEP  1, STRESS PERIOD   1

  HEAD DEP BOUNDS   PERIOD    1   STEP     1
 BOUNDARY      1   LAYER   1   ROW    13   COL     1   RATE   -0.286536    
 BOUNDARY      2   LAYER   1   ROW    14   COL     9   RATE    0.287755    



 STREAM LISTING     PERIOD      1   STEP        1

 LAYER ROW COL. STREAM  RCH.  FLOW INTO     FLOW TO   FLOW OUT OF   OVRLND.     DIRECT     STREAM       STREAM     STREAM     STREAM   STREAMBED  STREAMBED
                SEG.NO.  NO.  STRM. RCH.    AQUIFER    STRM. RCH.    RUNOFF     PRECIP       ET          HEAD       DEPTH      WIDTH   CONDCTNC.   GRADIENT

   1    1    1     1     1    1.8750E+00  6.5285E-02   1.8097E+00  0.000E+00  0.000E+00  0.000E+00  1.09358E+03  5.296E-01  4.110E+00  1.850E-02  1.177E+00
   1    2    2     1     2    1.8097E+00  1.0002E-01   1.7097E+00  0.000E+00  0.000E+00  0.000E+00  1.08858E+03  5.186E-01  4.061E+00  2.843E-02  1.173E+00
   1    3    3     1     3    1.7097E+00  8.4225E-02   1.6255E+00  0.000E+00  0.000E+00  0.000E+00  1.08292E+03  5.059E-01  4.004E+00  2.402E-02  1.169E+00
   1    3    4     1     4    1.6255E+00  7.6652E-02   1.5488E+00  0.000E+00  0.000E+00  0.000E+00  1.07790E+03  4.946E-01  3.952E+00  2.193E-02  1.165E+00
   1    4    5     2     1    0.0000E+00  0.0000E+00   0.0000E+00  0.000E+00  0.000E+00  0.000E+00  1.07193E+03  0.000E+00  1.200E+01  7.800E-02  1.000E+00
   1    5    6     2     2    0.0000E+00  0.0000E+00   0.0000E+00  0.000E+00  0.000E+00  0.000E+00  1.06651E+03  0.000E+00  1.200E+01  6.000E-02  1.000E+00
   1    6    6     2     3    0.0000E+00  0.0000E+00   0.0000E+00  0.000E+00  0.000E+00  0.000E+00  1.06179E+03  0.000E+00  1.200E+01  6.000E-02  1.000E+00
   1    7    6     2     4    0.0000E+00  0.0000E+00   0.0000E+00  0.000E+00  0.000E+00  0.000E+00  1.05708E+03  0.000E+00  1.200E+01  6.000E-02  1.000E+00
   1    8    6     2     5    0.0000E+00  0.0000E+00   0.0000E+00  0.000E+00  0.000E+00  0.000E+00  1.05236E+03  0.000E+00  1.200E+01  6.000E-02  1.000E+00
   1    3    5     3     1    1.5488E+00  2.8252E-01   1.2663E+00  0.000E+00  0.000E+00  0.000E+00  1.07555E+03  1.909E+00  9.636E+00  7.227E-02  1.955E+00
   1    3    6     3     2    1.2663E+00  2.4905E-01   1.0172E+00  0.000E+00  0.000E+00  0.000E+00  1.07264E+03  1.727E+00  8.909E+00  6.682E-02  1.864E+00
   1    3    7     3     3    1.0172E+00  1.9718E-01   8.2007E-01  0.000E+00  0.000E+00  0.000E+00  1.06987E+03  1.555E+00  8.218E+00  5.547E-02  1.777E+00
   1    4    8     3     4    8.2007E-01  2.2567E-01   5.9440E-01  0.000E+00  0.000E+00  0.000E+00  1.06682E+03  1.364E+00  7.455E+00  6.709E-02  1.682E+00
   1    5    8     3     5    5.9440E-01  1.5790E-01   4.3650E-01  0.000E+00  0.000E+00  0.000E+00  1.06362E+03  1.164E+00  6.655E+00  4.991E-02  1.582E+00
   1    6    8     3     6    4.3650E-01  5.5980E-02   3.8052E-01  0.000E+00  0.000E+00  0.000E+00  1.06158E+03  1.036E+00  6.145E+00  1.844E-02  1.518E+00
   1    5   10     4     1    1.0000E+01  9.0919E-02   9.9091E+00  0.000E+00  0.000E+00  0.000E+00  1.07836E+03  6.368E-01  1.000E+01  2.500E-02  1.212E+00
   1    5    9     4     2    9.9091E+00  1.8158E-01   9.7275E+00  0.000E+00  0.000E+00  0.000E+00  1.07154E+03  6.315E-01  1.000E+01  5.000E-02  1.211E+00
   1    6    8     4     3    9.7275E+00  1.2689E-01   9.6006E+00  0.000E+00  0.000E+00  0.000E+00  1.06381E+03  6.256E-01  1.000E+01  3.500E-02  1.209E+00
   1    6    8     5     1    9.9811E+00  2.2027E-01   9.7609E+00  0.000E+00  0.000E+00  0.000E+00  1.05867E+03  6.686E-01  1.501E+01  6.004E-02  1.223E+00
   1    7    7     5     2    9.7609E+00  2.7078E-01   9.4901E+00  0.000E+00  0.000E+00  0.000E+00  1.05416E+03  6.627E-01  1.479E+01  7.393E-02  1.221E+00
   1    8    7     5     3    9.4901E+00  1.8654E-01   9.3035E+00  0.000E+00  0.000E+00  0.000E+00  1.04991E+03  6.571E-01  1.457E+01  5.101E-02  1.219E+00
   1    8    6     5     4    9.3035E+00  1.3175E-01   9.1718E+00  0.000E+00  0.000E+00  0.000E+00  1.04690E+03  6.532E-01  1.443E+01  3.606E-02  1.218E+00
   1    9    6     6     1    9.1718E+00  2.1985E-01   8.9519E+00  0.000E+00  0.000E+00  0.000E+00  1.04339E+03  6.642E-01  1.200E+01  6.000E-02  1.221E+00
   1   10    7     6     2    8.9519E+00  2.1927E-01   8.7327E+00  0.000E+00  0.000E+00  0.000E+00  1.03884E+03  6.545E-01  1.200E+01  6.000E-02  1.218E+00
   1   11    7     6     3    8.7327E+00  2.1868E-01   8.5140E+00  0.000E+00  0.000E+00  0.000E+00  1.03428E+03  6.447E-01  1.200E+01  6.000E-02  1.215E+00
   1   12    7     6     4    8.5140E+00  2.1809E-01   8.2959E+00  0.000E+00  0.000E+00  0.000E+00  1.02973E+03  6.349E-01  1.200E+01  6.000E-02  1.212E+00
   1   13    7     6     5    8.2959E+00 -6.5708E-02   8.3616E+00  0.000E+00  0.000E+00  0.000E+00  1.02654E+03  6.314E-01  1.200E+01  2.400E-01 -9.126E-02
   1   14    9     7     1    1.5000E+02  1.3651E+00   1.4863E+02  0.000E+00  0.000E+00  0.000E+00  1.03987E+03  2.288E+00  5.529E+01  5.593E-01  8.136E-01
   1   13    8     7     2    1.4863E+02  1.9205E+00   1.4671E+02  0.000E+00  0.000E+00  0.000E+00  1.03478E+03  2.279E+00  5.526E+01  6.148E-01  1.041E+00
   1   13    7     7     3    1.4671E+02  1.6052E+00   1.4511E+02  0.000E+00  0.000E+00  0.000E+00  1.02969E+03  2.269E+00  5.521E+01  5.584E-01  9.582E-01
   1   13    6     8     1    1.5347E+02  9.5026E-01   1.5252E+02  0.000E+00  0.000E+00  0.000E+00  1.02471E+03  2.838E+00  4.115E+01  4.193E-01  7.554E-01
   1   13    5     8     2    1.5252E+02  2.1144E-01   1.5231E+02  0.000E+00  0.000E+00  0.000E+00  1.01846E+03  2.834E+00  4.109E+01  4.187E-01  1.683E-01
   1   13    4     8     3    1.5231E+02 -2.3074E+00   1.5462E+02  0.000E+00  0.000E+00  0.000E+00  1.01222E+03  2.841E+00  4.120E+01  4.198E+00 -1.832E-01
   1   13    3     8     4    1.5462E+02 -3.5750E+00   1.5819E+02  0.000E+00  0.000E+00  0.000E+00  1.00599E+03  2.861E+00  4.149E+01  4.228E+00 -2.819E-01
   1   13    2     8     5    1.5819E+02 -2.5597E+00   1.6075E+02  0.000E+00  0.000E+00  0.000E+00  9.99757E+02  2.882E+00  4.179E+01  4.259E+00 -2.003E-01
   1   13    1     8     6    1.6075E+02 -1.9726E+00   1.6272E+02  0.000E+00  0.000E+00  0.000E+00  9.94773E+02  2.898E+00  4.201E+01  2.569E+00 -2.560E-01
   1    8    6     9     1    0.0000E+00  0.0000E+00   0.0000E+00  0.000E+00  0.000E+00  0.000E+00  1.07875E+03  0.000E+00  4.000E+00  0.000E+00  1.000E+00
   1    8    5     9     2    0.0000E+00  0.0000E+00   0.0000E+00  0.000E+00  0.000E+00  0.000E+00  1.07825E+03  0.000E+00  4.000E+00  0.000E+00  1.000E+00



 UBDSV3 SAVING "           GW ET" ON UNIT  61 AT TIME STEP  1, STRESS PERIOD   1
 UBDSV3 SAVING "    UZF RECHARGE" ON UNIT  61 AT TIME STEP  1, STRESS PERIOD   1
 UBDSV3 SAVING " SURFACE LEAKAGE" ON UNIT  61 AT TIME STEP  1, STRESS PERIOD   1
 UBDSV3 SAVING "       HORT+DUNN" ON UNIT  61 AT TIME STEP  1, STRESS PERIOD   1
 UBDSV3 SAVING "  STORAGE CHANGE" ON UNIT  61 AT TIME STEP  1, STRESS PERIOD   1


UNSATURATED ZONE PACKAGE VOLUMETRIC BUDGET FOR  TIME STEP     1 STRESS PERIOD    1
  ------------------------------------------------------------------------------



     CUMULATIVE VOLUMES      L**3       RATES FOR THIS TIME STEP      L**3/T
     ------------------                 ------------------------

           IN:                                      IN:
           ---                                      ---
        INFILTRATION =       73224.0000          INFILTRATION =           0.8475

          OUT:                                     OUT:
          ----                                     ----
              UZF ET =       0.0000E+00                UZF ET =       0.0000E+00
        UZF RECHARGE =       73224.0000          UZF RECHARGE =           0.8475

            IN - OUT =       0.0000E+00              IN - OUT =       0.0000E+00

          STORAGE:                                 STORAGE:
          --------                                 --------
      STORAGE CHANGE =       0.0000E+00        STORAGE CHANGE =       0.0000E+00

 PERCENT DISCREPANCY IS DIFFERENCE BETWEEN IN-OUT MINUS CHANGE IN STORAGE
 DIVIDED BY THE AVERAGE OF IN AND OUT TIMES 100

 PERCENT DISCREPANCY =           0.00     PERCENT DISCREPANCY =           0.00






 

            AG WELLS      PERIOD    1   STEP   1
 AG WELL      1   LAYER   1   ROW     6   COL     4   RATE     0.00000    
 AG WELL      2   LAYER   1   ROW     6   COL     5   RATE     0.00000    
 AG WELL      3   LAYER   1   ROW     7   COL     4   RATE     0.00000    
 AG WELL      4   LAYER   1   ROW     7   COL     5   RATE     0.00000    
 AG WELL      5   LAYER   1   ROW     8   COL     4   RATE     0.00000    
 AG WELL      6   LAYER   1   ROW     8   COL     5   RATE     0.00000    
 
 

   DIVERSION SEGMENTS     PERIOD    1   STEP   1
 
 

        SW IRRIGATION     PERIOD    1   STEP   1
 
 

        GW IRRIGATION     PERIOD    1   STEP   1
 
1
  VOLUMETRIC BUDGET FOR AGRICULTURAL FIELDS AT  END OF TIME STEP    1, STRESS PERIOD   1
  ------------------------------------------------------------------------------

     CUMULATIVE VOLUMES      L**3       RATES FOR THIS TIME STEP      L**3/T
     ------------------                 ------------------------

           IN:                                      IN:
           ---                                      ---
               AG WELLS  =           0.0000                 AG WELLS  =           0.0000
      DIVERSION SEGMENTS =           0.0000        DIVERSION SEGMENTS =           0.0000
           GW IRRIGATION =           0.0000             GW IRRIGATION =           0.0000
           SW IRRIGATION =           0.0000             SW IRRIGATION =           0.0000
        SYSTEM LOSSES GW =           0.0000          SYSTEM LOSSES GW =           0.0000
        SYSTEM LOSSES SW =           0.0000          SYSTEM LOSSES SW =           0.0000

                TOTAL IN =           0.0000                  TOTAL IN =           0.0000

          OUT:                                     OUT:
          ----                                     ----
               AG WELLS  =           0.0000                 AG WELLS  =           0.0000
      DIVERSION SEGMENTS =           0.0000        DIVERSION SEGMENTS =           0.0000
           GW IRRIGATION =           0.0000             GW IRRIGATION =           0.0000
           SW IRRIGATION =           0.0000             SW IRRIGATION =           0.0000
        SYSTEM LOSSES GW =           0.0000          SYSTEM LOSSES GW =           0.0000
        SYSTEM LOSSES SW =           0.0000          SYSTEM LOSSES SW =           0.0000

               TOTAL OUT =           0.0000                 TOTAL OUT =           0.0000

                IN - OUT =           0.0000                  IN - OUT =           0.0000

     PERCENT DISCREPANCY =           0.00         PERCENT DISCREPANCY =           0.00



1
              HEAD IN LAYER   1 AT END OF TIME STEP   1 IN STRESS PERIOD    1
  ---------------------------------------------------------------------------

           1       2       3       4       5       6       7       8       9      10
 ...................................................................................
   1  1029.26 1028.37 6999.00 6999.00 6999.00 6999.00 6999.00 6999.00 6999.00 6999.00
   2  1028.45 1027.36 1026.88 6999.00 6999.00 1028.30 1028.48 1028.46 6999.00 6999.00
   3  6999.00 1026.66 1026.39 1026.21 1026.77 1027.48 1028.04 1028.04 6999.00 6999.00
   4  1026.25 1026.11 1025.89 1025.72 1025.72 1025.86 1026.44 1027.58 1027.34 6999.00
   5  1025.90 1025.50 1025.30 1025.20 1025.26 1025.43 1025.71 1026.26 1026.91 1027.46
   6  1025.46 1024.92 1024.71 1024.66 1024.75 1024.99 1025.37 1025.92 1026.38 1027.29
   7  1025.06 1024.16 1023.99 1024.01 1024.15 1024.46 1024.94 1025.38 1025.92 6999.00
   8  6999.00 1023.02 1023.05 1023.19 1023.40 1023.81 1024.28 1024.92 1025.60 6999.00
   9  6999.00 1021.31 1021.62 1022.06 1022.44 1023.05 1023.57 1024.31 1025.54 6999.00
  10  6999.00 1018.82 1019.57 1020.57 1021.33 1022.32 1023.23 1024.33 1025.99 1026.64
  11  6999.00 1014.68 1016.10 1018.53 1020.11 1021.81 1023.34 1025.18 1027.44 6999.00
  12  1001.77 1007.67 1011.76 1015.60 1018.78 1021.71 1024.22 1027.74 1030.81 6999.00
  13   995.54 1000.36 1006.83 1012.77 1017.95 1022.45 1026.81 1031.65 1034.50 6999.00
  14  6999.00 1005.73 1008.80 1013.40 1018.06 1022.43 1027.39 1032.95 1037.43 6999.00
  15  6999.00 6999.00 1012.40 1015.08 1018.50 1021.48 6999.00 6999.00 6999.00 6999.00

 HEAD WILL BE SAVED ON UNIT   62 AT END OF TIME STEP    1, STRESS PERIOD    1
1
  VOLUMETRIC BUDGET FOR ENTIRE MODEL AT END OF TIME STEP    1, STRESS PERIOD   1
  ------------------------------------------------------------------------------

     CUMULATIVE VOLUMES      L**3       RATES FOR THIS TIME STEP      L**3/T
     ------------------                 ------------------------

           IN:                                      IN:
           ---                                      ---
             STORAGE     =           0.0000               STORAGE     =           0.0000
       CONSTANT HEAD     =           0.0000         CONSTANT HEAD     =           0.0000
     HEAD DEP BOUNDS     =       24862.0605       HEAD DEP BOUNDS     =           0.2878
      STREAM LEAKAGE     =      832172.8125        STREAM LEAKAGE     =           9.6316
        UZF RECHARGE     =       73223.9531          UZF RECHARGE     =           0.8475
               GW ET     =           0.0000                 GW ET     =           0.0000
     SURFACE LEAKAGE     =           0.0000       SURFACE LEAKAGE     =           0.0000
           AG WELLS      =           0.0000             AG WELLS      =           0.0000

                TOTAL IN =      930258.8125                  TOTAL IN =          10.7669

          OUT:                                     OUT:
          ----                                     ----
             STORAGE     =           0.0000               STORAGE     =           0.0000
       CONSTANT HEAD     =           0.0000         CONSTANT HEAD     =           0.0000
     HEAD DEP BOUNDS     =       24756.7500       HEAD DEP BOUNDS     =           0.2865
      STREAM LEAKAGE     =      905501.8750        STREAM LEAKAGE     =          10.4803
        UZF RECHARGE     =           0.0000          UZF RECHARGE     =           0.0000
               GW ET     =           0.0000                 GW ET     =           0.0000
     SURFACE LEAKAGE     =           0.0000       SURFACE LEAKAGE     =           0.0000
           AG WELLS      =           0.0000             AG WELLS      =           0.0000

               TOTAL OUT =      930258.6250                 TOTAL OUT =          10.7669

                IN - OUT =           0.1875                  IN - OUT =       2.8610E-06

     PERCENT DISCREPANCY =           0.00         PERCENT DISCREPANCY =           0.00






         TIME SUMMARY AT END OF TIME STEP    1 IN STRESS PERIOD    1
                    SECONDS     MINUTES      HOURS       DAYS        YEARS
                    -----------------------------------------------------------
   TIME STEP LENGTH  86400.      1440.0      24.000      1.0000     2.73785E-03
 STRESS PERIOD TIME  86400.      1440.0      24.000      1.0000     2.73785E-03
         TOTAL TIME  86400.      1440.0      24.000      1.0000     2.73785E-03
1
1
                            STRESS PERIOD NO.    2, LENGTH =   2630000.    
                            -----------------------------------------------

                              NUMBER OF TIME STEPS =    30

                               MULTIPLIER FOR DELT =     1.000

                            INITIAL TIME STEP SIZE =   87666.66    

 REUSING NON-PARAMETER GHB CELLS FROM LAST STRESS PERIOD

      2 GHB CELLS

 REUSING STREAM SEGMENT DATA FROM LAST STRESS PERIOD



            AREAL INFILTRATION RATE
 READING ON UNIT   19 WITH FORMAT: (10F4.0)            

            1           2           3           4           5           6           7           8           9          10
 ........................................................................................................................
   1   1.2000E-09   0.000       0.000       0.000       0.000       0.000       0.000       0.000       0.000       0.000    
   2   2.1000E-09  2.0000E-09  8.0000E-10  8.5000E-09   0.000       0.000       0.000       0.000       0.000       0.000    
   3   5.0000E-10  1.1000E-09  8.8000E-09  5.5000E-09   0.000       0.000       0.000       0.000       0.000       0.000    
   4   8.5000E-09  1.1000E-09  1.1000E-09  1.1000E-09  2.0000E-09   0.000       0.000       0.000       0.000       0.000    
   5   8.5000E-09  1.1000E-09  1.1000E-09  1.1000E-09  1.1000E-09   0.000       0.000       0.000       0.000       0.000    
   6   8.5000E-09  5.2000E-09  2.1000E-09  1.1000E-09  1.5000E-09   0.000       0.000       0.000       0.000       0.000    
   7   8.5000E-09  5.2000E-09  2.1000E-09  1.2000E-09  2.0000E-09   0.000       0.000       0.000       0.000       0.000    
   8   5.0000E-10  5.2000E-09  2.1000E-09  1.2000E-09  5.0000E-09   0.000       0.000       0.000       0.000       0.000    
   9   5.0000E-10  5.2000E-09  2.1000E-09  1.2000E-09  5.0000E-09   0.000       0.000       0.000       0.000       0.000    
  10   5.0000E-10  5.2000E-09  2.1000E-09  1.2000E-09  5.8000E-09   0.000       0.000       0.000       0.000       0.000    
  11   1.0000E-10  1.1000E-09  1.1000E-09  1.2000E-09  5.0000E-09   0.000       0.000       0.000       0.000       0.000    
  12   1.1000E-09  1.1000E-09  1.1000E-09  1.1000E-09  2.0000E-09   0.000       0.000       0.000       0.000       0.000    
  13   1.1000E-09  2.2000E-09  2.2000E-09  2.1000E-09  1.0000E-09   0.000       0.000       0.000       0.000       0.000    
  14   2.0000E-10  5.5000E-09  5.5000E-09  5.2000E-09  1.0000E-09   0.000       0.000       0.000       0.000       0.000    
  15    0.000      8.8000E-09  8.8000E-09   0.000       0.000       0.000       0.000       0.000       0.000       0.000    

                  ET RATE =  5.000000E-10

 USING ET EXTINCTION DEPTH FROM PREVIOUS STRESS PERIOD. CURRENT PERIOD IS:       2

 USING EXTINCTION WATER CONTENT FROM PREVIOUS STRESS PERIOD. CURRENT PERIOD IS:       2

 USING AIR ENTRY PRESSURE FROM PREVIOUS STRESS PERIOD. CURRENT PERIOD IS:       2

 USING ROOT PRESSURE HEAD FROM PREVIOUS STRESS PERIOD. CURRENT PERIOD IS:       2

 USING ROOT ACTIVITY FROM PREVIOUS STRESS PERIOD. CURRENT PERIOD IS:       2

 PROCESSING AG STRESS PERIOD DATA

 READING AG STRESS PERIOD DATA

 READING IRRIGATION SEGMENT

 READING IRRIGATION WELL

 READING SUPPLEMENTAL WELL

 END PROCESSING AG STRESS PERIOD DATA OPTIONS
 
 SOLVING FOR HEAD 
                                                   Max.-Head-Change                         Max.-Flux-Residual
  Residual-Control   Outer-Iter.   Inner-Iter.     Column Row Layer    Maximum-Head-Change  Column Row Layer    Maximum-Flux-Residual          L2-NORM 
          0                 1           2             5    4     1       0.4971666983E-02       5    4    1         0.2692751545E+00      0.5607056842E+00
          0                 2           2             5    4     1      -0.4836091141E-03       5    4    1        -0.2692761862E-01      0.5590529324E-01
          0                 3           1             5    4     1       0.3293196866E-04       5    4    1         0.1884933145E-02      0.3898364406E-02

    ------------------------------------------------
       NWT REQUIRED            3 OUTER ITERATIONS 
       AND A TOTAL OF          5 INNER ITERATIONS.
    ------------------------------------------------

 OUTPUT CONTROL FOR STRESS PERIOD    2   TIME STEP    1
    PRINT BUDGET
    PRINT HEAD FOR ALL LAYERS
    SAVE BUDGET
 UBDSV1 SAVING "         STORAGE" ON UNIT 102 AT TIME STEP  1, STRESS PERIOD   2
 UBDSV2 SAVING "   CONSTANT HEAD" ON UNIT 102 AT TIME STEP  1, STRESS PERIOD   2
 UBDSV1 SAVING "FLOW RIGHT FACE " ON UNIT 102 AT TIME STEP  1, STRESS PERIOD   2
 UBDSV1 SAVING "FLOW FRONT FACE " ON UNIT 102 AT TIME STEP  1, STRESS PERIOD   2

  HEAD DEP BOUNDS   PERIOD    2   STEP     1
 BOUNDARY      1   LAYER   1   ROW    13   COL     1   RATE   -0.286571    
 BOUNDARY      2   LAYER   1   ROW    14   COL     9   RATE    0.287757    



 STREAM LISTING     PERIOD      2   STEP        1

 LAYER ROW COL. STREAM  RCH.  FLOW INTO     FLOW TO   FLOW OUT OF   OVRLND.     DIRECT     STREAM       STREAM     STREAM     STREAM   STREAMBED  STREAMBED
                SEG.NO.  NO.  STRM. RCH.    AQUIFER    STRM. RCH.    RUNOFF     PRECIP       ET          HEAD       DEPTH      WIDTH   CONDCTNC.   GRADIENT

   1    1    1     1     1    8.2500E+00  1.3178E-01   8.1182E+00  0.000E+00  0.000E+00  0.000E+00  1.09389E+03  8.424E-01  7.622E+00  3.430E-02  1.281E+00
   1    2    2     1     2    8.1182E+00  2.0240E-01   7.9158E+00  0.000E+00  0.000E+00  0.000E+00  1.08890E+03  8.367E-01  7.536E+00  5.276E-02  1.279E+00
   1    3    3     1     3    7.9158E+00  1.7099E-01   7.7448E+00  0.000E+00  0.000E+00  0.000E+00  1.08325E+03  8.302E-01  7.440E+00  4.464E-02  1.277E+00
   1    3    4     1     4    7.7448E+00  1.5612E-01   7.5887E+00  0.000E+00  0.000E+00  0.000E+00  1.07823E+03  8.244E-01  7.355E+00  4.082E-02  1.275E+00
   1    4    5     2     1    5.5887E+00  2.7178E-01   5.3169E+00  0.000E+00  0.000E+00  0.000E+00  1.07242E+03  4.843E-01  1.200E+01  7.800E-02  1.161E+00
   1    5    6     2     2    5.3169E+00  2.0828E-01   5.1086E+00  0.000E+00  0.000E+00  0.000E+00  1.06698E+03  4.714E-01  1.200E+01  6.000E-02  1.157E+00
   1    6    6     2     3    5.1086E+00  2.0760E-01   4.9010E+00  0.000E+00  0.000E+00  0.000E+00  1.06225E+03  4.600E-01  1.200E+01  6.000E-02  1.153E+00
   1    7    6     2     4    4.9010E+00  2.0691E-01   4.6941E+00  0.000E+00  0.000E+00  0.000E+00  1.05752E+03  4.485E-01  1.200E+01  6.000E-02  1.149E+00
   1    8    6     2     5    4.6941E+00  2.0621E-01   4.4879E+00  0.000E+00  0.000E+00  0.000E+00  1.05280E+03  4.368E-01  1.200E+01  6.000E-02  1.146E+00
   1    3    5     3     1    2.0000E+00  2.8252E-01   1.7175E+00  0.000E+00  0.000E+00  0.000E+00  1.07555E+03  1.909E+00  9.636E+00  7.227E-02  1.955E+00
   1    3    6     3     2    1.7175E+00  2.4905E-01   1.4684E+00  0.000E+00  0.000E+00  0.000E+00  1.07264E+03  1.727E+00  8.909E+00  6.682E-02  1.864E+00
   1    3    7     3     3    1.4684E+00  1.9718E-01   1.2712E+00  0.000E+00  0.000E+00  0.000E+00  1.06987E+03  1.555E+00  8.218E+00  5.547E-02  1.777E+00
   1    4    8     3     4    1.2712E+00  2.2567E-01   1.0456E+00  0.000E+00  0.000E+00  0.000E+00  1.06682E+03  1.364E+00  7.455E+00  6.709E-02  1.682E+00
   1    5    8     3     5    1.0456E+00  1.5790E-01   8.8768E-01  0.000E+00  0.000E+00  0.000E+00  1.06362E+03  1.164E+00  6.655E+00  4.991E-02  1.582E+00
   1    6    8     3     6    8.8768E-01  5.5980E-02   8.3170E-01  0.000E+00  0.000E+00  0.000E+00  1.06158E+03  1.036E+00  6.145E+00  1.844E-02  1.518E+00
   1    5   10     4     1    1.0000E+01  9.0919E-02   9.9091E+00  0.000E+00  0.000E+00  0.000E+00  1.07836E+03  6.368E-01  1.000E+01  2.500E-02  1.212E+00
   1    5    9     4     2    9.9091E+00  1.8158E-01   9.7275E+00  0.000E+00  0.000E+00  0.000E+00  1.07154E+03  6.315E-01  1.000E+01  5.000E-02  1.211E+00
   1    6    8     4     3    9.7275E+00  1.2689E-01   9.6006E+00  0.000E+00  0.000E+00  0.000E+00  1.06381E+03  6.256E-01  1.000E+01  3.500E-02  1.209E+00
   1    6    8     5     1    1.0432E+01  2.2686E-01   1.0205E+01  0.000E+00  0.000E+00  0.000E+00  1.05868E+03  6.790E-01  1.542E+01  6.166E-02  1.226E+00
   1    7    7     5     2    1.0205E+01  2.7894E-01   9.9265E+00  0.000E+00  0.000E+00  0.000E+00  1.05417E+03  6.732E-01  1.519E+01  7.594E-02  1.224E+00
   1    8    7     5     3    9.9265E+00  1.9221E-01   9.7343E+00  0.000E+00  0.000E+00  0.000E+00  1.04992E+03  6.676E-01  1.497E+01  5.241E-02  1.223E+00
   1    8    6     5     4    9.7343E+00  1.3577E-01   9.5985E+00  0.000E+00  0.000E+00  0.000E+00  1.04691E+03  6.637E-01  1.482E+01  3.706E-02  1.221E+00
   1    9    6     6     1    1.4086E+01  2.3167E-01   1.3855E+01  0.000E+00  0.000E+00  0.000E+00  1.04359E+03  8.612E-01  1.200E+01  6.000E-02  1.287E+00
   1   10    7     6     2    1.3855E+01  2.3116E-01   1.3624E+01  0.000E+00  0.000E+00  0.000E+00  1.03903E+03  8.526E-01  1.200E+01  6.000E-02  1.284E+00
   1   11    7     6     3    1.3624E+01  2.3064E-01   1.3393E+01  0.000E+00  0.000E+00  0.000E+00  1.03448E+03  8.440E-01  1.200E+01  6.000E-02  1.281E+00
   1   12    7     6     4    1.3393E+01  2.3012E-01   1.3163E+01  0.000E+00  0.000E+00  0.000E+00  1.02993E+03  8.353E-01  1.200E+01  6.000E-02  1.278E+00
   1   13    7     6     5    1.3163E+01 -1.7911E-02   1.3181E+01  0.000E+00  0.000E+00  0.000E+00  1.02674E+03  8.313E-01  1.200E+01  2.400E-01 -2.488E-02
   1   14    9     7     1    1.5000E+02  1.3652E+00   1.4863E+02  0.000E+00  0.000E+00  0.000E+00  1.03987E+03  2.288E+00  5.529E+01  5.593E-01  8.136E-01
   1   13    8     7     2    1.4863E+02  1.9205E+00   1.4671E+02  0.000E+00  0.000E+00  0.000E+00  1.03478E+03  2.279E+00  5.526E+01  6.148E-01  1.041E+00
   1   13    7     7     3    1.4671E+02  1.6048E+00   1.4511E+02  0.000E+00  0.000E+00  0.000E+00  1.02969E+03  2.269E+00  5.521E+01  5.584E-01  9.579E-01
   1   13    6     8     1    1.5829E+02  9.7525E-01   1.5732E+02  0.000E+00  0.000E+00  0.000E+00  1.02475E+03  2.871E+00  4.163E+01  4.242E-01  7.663E-01
   1   13    5     8     2    1.5732E+02  2.2782E-01   1.5709E+02  0.000E+00  0.000E+00  0.000E+00  1.01849E+03  2.867E+00  4.157E+01  4.236E-01  1.793E-01
   1   13    4     8     3    1.5709E+02 -2.2030E+00   1.5929E+02  0.000E+00  0.000E+00  0.000E+00  1.01225E+03  2.874E+00  4.167E+01  4.246E+00 -1.729E-01
   1   13    3     8     4    1.5929E+02 -3.4860E+00   1.6278E+02  0.000E+00  0.000E+00  0.000E+00  1.00602E+03  2.893E+00  4.195E+01  4.274E+00 -2.718E-01
   1   13    2     8     5    1.6278E+02 -2.4627E+00   1.6524E+02  0.000E+00  0.000E+00  0.000E+00  9.99788E+02  2.913E+00  4.223E+01  4.304E+00 -1.907E-01
   1   13    1     8     6    1.6524E+02 -1.9181E+00   1.6716E+02  0.000E+00  0.000E+00  0.000E+00  9.94802E+02  2.927E+00  4.245E+01  2.595E+00 -2.464E-01
   1    8    6     9     1    0.0000E+00  0.0000E+00   0.0000E+00  0.000E+00  0.000E+00  0.000E+00  1.07875E+03  0.000E+00  4.000E+00  0.000E+00  1.000E+00
   1    8    5     9     2    0.0000E+00  0.0000E+00   0.0000E+00  0.000E+00  0.000E+00  0.000E+00  1.07825E+03  0.000E+00  4.000E+00  0.000E+00  1.000E+00



 UBDSV3 SAVING "           GW ET" ON UNIT  61 AT TIME STEP  1, STRESS PERIOD   2
 UBDSV3 SAVING "    UZF RECHARGE" ON UNIT  61 AT TIME STEP  1, STRESS PERIOD   2
 UBDSV3 SAVING " SURFACE LEAKAGE" ON UNIT  61 AT TIME STEP  1, STRESS PERIOD   2
 UBDSV3 SAVING "       HORT+DUNN" ON UNIT  61 AT TIME STEP  1, STRESS PERIOD   2
 UBDSV3 SAVING "  STORAGE CHANGE" ON UNIT  61 AT TIME STEP  1, STRESS PERIOD   2


UNSATURATED ZONE PACKAGE VOLUMETRIC BUDGET FOR  TIME STEP     1 STRESS PERIOD    2
  ------------------------------------------------------------------------------



     CUMULATIVE VOLUMES      L**3       RATES FOR THIS TIME STEP      L**3/T
     ------------------                 ------------------------

           IN:                                      IN:
           ---                                      ---
        INFILTRATION =      459614.8186          INFILTRATION =           4.4075

          OUT:                                     OUT:
          ----                                     ----
              UZF ET =       63558.2496                UZF ET =           0.7250
        UZF RECHARGE =       73224.0000          UZF RECHARGE =       0.0000E+00

            IN - OUT =      322832.5690              IN - OUT =           3.6825

          STORAGE:                                 STORAGE:
          --------                                 --------
      STORAGE CHANGE =      322832.5674        STORAGE CHANGE =           3.6825

 PERCENT DISCREPANCY IS DIFFERENCE BETWEEN IN-OUT MINUS CHANGE IN STORAGE
 DIVIDED BY THE AVERAGE OF IN AND OUT TIMES 100

 PERCENT DISCREPANCY =           0.00     PERCENT DISCREPANCY =           0.00






 

            AG WELLS      PERIOD    2   STEP   1
 AG WELL      1   LAYER   1   ROW     6   COL     4   RATE     0.00000    
 AG WELL      2   LAYER   1   ROW     6   COL     5   RATE     0.00000    
 AG WELL      3   LAYER   1   ROW     7   COL     4   RATE     0.00000    
 AG WELL      4   LAYER   1   ROW     7   COL     5   RATE     0.00000    
 AG WELL      5   LAYER   1   ROW     8   COL     4   RATE     0.00000    
 AG WELL      6   LAYER   1   ROW     8   COL     5   RATE     0.00000    
 
 

   DIVERSION SEGMENTS     PERIOD    2   STEP   1
 
 

        SW IRRIGATION     PERIOD    2   STEP   1
 
 

        GW IRRIGATION     PERIOD    2   STEP   1
 
1
  VOLUMETRIC BUDGET FOR AGRICULTURAL FIELDS AT  END OF TIME STEP    1, STRESS PERIOD   2
  ------------------------------------------------------------------------------

     CUMULATIVE VOLUMES      L**3       RATES FOR THIS TIME STEP      L**3/T
     ------------------                 ------------------------

           IN:                                      IN:
           ---                                      ---
               AG WELLS  =           0.0000                 AG WELLS  =           0.0000
      DIVERSION SEGMENTS =           0.0000        DIVERSION SEGMENTS =           0.0000
           GW IRRIGATION =           0.0000             GW IRRIGATION =           0.0000
           SW IRRIGATION =           0.0000             SW IRRIGATION =           0.0000
        SYSTEM LOSSES GW =           0.0000          SYSTEM LOSSES GW =           0.0000
        SYSTEM LOSSES SW =           0.0000          SYSTEM LOSSES SW =           0.0000

                TOTAL IN =           0.0000                  TOTAL IN =           0.0000

          OUT:                                     OUT:
          ----                                     ----
               AG WELLS  =           0.0000                 AG WELLS  =           0.0000
      DIVERSION SEGMENTS =           0.0000        DIVERSION SEGMENTS =           0.0000
           GW IRRIGATION =           0.0000             GW IRRIGATION =           0.0000
           SW IRRIGATION =           0.0000             SW IRRIGATION =           0.0000
        SYSTEM LOSSES GW =           0.0000          SYSTEM LOSSES GW =           0.0000
        SYSTEM LOSSES SW =           0.0000          SYSTEM LOSSES SW =           0.0000

               TOTAL OUT =           0.0000                 TOTAL OUT =           0.0000

                IN - OUT =           0.0000                  IN - OUT =           0.0000

     PERCENT DISCREPANCY =           0.00         PERCENT DISCREPANCY =           0.00



1
              HEAD IN LAYER   1 AT END OF TIME STEP   1 IN STRESS PERIOD    2
  ---------------------------------------------------------------------------

           1       2       3       4       5       6       7       8       9      10
 ...................................................................................
   1  1029.26 1028.36 6999.00 6999.00 6999.00 6999.00 6999.00 6999.00 6999.00 6999.00
   2  1028.45 1027.36 1026.88 6999.00 6999.00 1028.30 1028.48 1028.46 6999.00 6999.00
   3  6999.00 1026.66 1026.39 1026.21 1026.77 1027.48 1028.04 1028.04 6999.00 6999.00
   4  1026.25 1026.11 1025.89 1025.72 1025.72 1025.86 1026.44 1027.58 1027.34 6999.00
   5  1025.90 1025.50 1025.30 1025.20 1025.26 1025.43 1025.71 1026.26 1026.91 1027.46
   6  1025.46 1024.92 1024.71 1024.66 1024.75 1024.99 1025.37 1025.92 1026.38 1027.29
   7  1025.06 1024.16 1023.99 1024.01 1024.15 1024.46 1024.94 1025.38 1025.92 6999.00
   8  6999.00 1023.02 1023.05 1023.19 1023.40 1023.81 1024.28 1024.92 1025.60 6999.00
   9  6999.00 1021.31 1021.62 1022.06 1022.44 1023.05 1023.57 1024.31 1025.54 6999.00
  10  6999.00 1018.82 1019.57 1020.57 1021.33 1022.32 1023.23 1024.33 1025.99 1026.64
  11  6999.00 1014.68 1016.10 1018.53 1020.11 1021.81 1023.34 1025.18 1027.44 6999.00
  12  1001.77 1007.67 1011.76 1015.60 1018.78 1021.71 1024.22 1027.74 1030.81 6999.00
  13   995.54 1000.36 1006.83 1012.77 1017.95 1022.45 1026.81 1031.65 1034.50 6999.00
  14  6999.00 1005.73 1008.80 1013.40 1018.06 1022.43 1027.39 1032.95 1037.43 6999.00
  15  6999.00 6999.00 1012.40 1015.08 1018.50 1021.48 6999.00 6999.00 6999.00 6999.00
1
  VOLUMETRIC BUDGET FOR ENTIRE MODEL AT END OF TIME STEP    1, STRESS PERIOD   2
  ------------------------------------------------------------------------------

     CUMULATIVE VOLUMES      L**3       RATES FOR THIS TIME STEP      L**3/T
     ------------------                 ------------------------

           IN:                                      IN:
           ---                                      ---
             STORAGE     =       65430.3164               STORAGE     =           0.7464
       CONSTANT HEAD     =           0.0000         CONSTANT HEAD     =           0.0000
     HEAD DEP BOUNDS     =       50088.7578       HEAD DEP BOUNDS     =           0.2878
      STREAM LEAKAGE     =     1812343.5000        STREAM LEAKAGE     =          11.1807
        UZF RECHARGE     =       73223.9531          UZF RECHARGE     =           0.0000
               GW ET     =           0.0000                 GW ET     =           0.0000
     SURFACE LEAKAGE     =           0.0000       SURFACE LEAKAGE     =           0.0000
           AG WELLS      =           0.0000             AG WELLS      =           0.0000

                TOTAL IN =     2001086.6250                  TOTAL IN =          12.2148

          OUT:                                     OUT:
          ----                                     ----
             STORAGE     =      161381.7188               STORAGE     =           1.8409
       CONSTANT HEAD     =           0.0000         CONSTANT HEAD     =           0.0000
     HEAD DEP BOUNDS     =       49879.4922       HEAD DEP BOUNDS     =           0.2866
      STREAM LEAKAGE     =     1789852.2500        STREAM LEAKAGE     =          10.0876
        UZF RECHARGE     =           0.0000          UZF RECHARGE     =           0.0000
               GW ET     =           0.0000                 GW ET     =           0.0000
     SURFACE LEAKAGE     =           0.0000       SURFACE LEAKAGE     =           0.0000
           AG WELLS      =           0.0000             AG WELLS      =           0.0000

               TOTAL OUT =     2001113.5000                 TOTAL OUT =          12.2151

                IN - OUT =         -26.8750                  IN - OUT =      -3.0899E-04

     PERCENT DISCREPANCY =          -0.00         PERCENT DISCREPANCY =          -0.00






         TIME SUMMARY AT END OF TIME STEP    1 IN STRESS PERIOD    2
                    SECONDS     MINUTES      HOURS       DAYS        YEARS
                    -----------------------------------------------------------
   TIME STEP LENGTH  87667.      1461.1      24.352      1.0147     2.77799E-03
 STRESS PERIOD TIME  87667.      1461.1      24.352      1.0147     2.77799E-03
         TOTAL TIME 1.74067E+05  2901.1      48.352      2.0147     5.51584E-03
1
 
 SOLVING FOR HEAD 
                                                   Max.-Head-Change                         Max.-Flux-Residual
  Residual-Control   Outer-Iter.   Inner-Iter.     Column Row Layer    Maximum-Head-Change  Column Row Layer    Maximum-Flux-Residual          L2-NORM 
          0                 1           2             5    4     1       0.4771848972E-02       5    4    1         0.2582580026E+00      0.5403927100E+00
          0                 2           2             5    4     1      -0.4641721424E-03       5    4    1        -0.2582589456E-01      0.5389182994E-01
          0                 3           1             5    4     1       0.3160838451E-04       5    4    1         0.1807812509E-02      0.3758357432E-02

    ------------------------------------------------
       NWT REQUIRED            3 OUTER ITERATIONS 
       AND A TOTAL OF          5 INNER ITERATIONS.
    ------------------------------------------------

 NO OUTPUT CONTROL FOR STRESS PERIOD    2   TIME STEP    2
 
 SOLVING FOR HEAD 
                                                   Max.-Head-Change                         Max.-Flux-Residual
  Residual-Control   Outer-Iter.   Inner-Iter.     Column Row Layer    Maximum-Head-Change  Column Row Layer    Maximum-Flux-Residual          L2-NORM 
          0                 1           2             5    4     1       0.4583646720E-02       5    4    1         0.2478847001E+00      0.5216599898E+00
          0                 2           2             5    4     1      -0.4458650800E-03       5    4    1        -0.2478855632E-01      0.5203527442E-01
          0                 3           1             5    4     1       0.3036174237E-04       5    4    1         0.1735198885E-02      0.3630524544E-02

    ------------------------------------------------
       NWT REQUIRED            3 OUTER ITERATIONS 
       AND A TOTAL OF          5 INNER ITERATIONS.
    ------------------------------------------------

 NO OUTPUT CONTROL FOR STRESS PERIOD    2   TIME STEP    3
 
 SOLVING FOR HEAD 
                                                   Max.-Head-Change                         Max.-Flux-Residual
  Residual-Control   Outer-Iter.   Inner-Iter.     Column Row Layer    Maximum-Head-Change  Column Row Layer    Maximum-Flux-Residual          L2-NORM 
          0                 1           2             5    4     1       0.4406075075E-02       5    4    1         0.2381005740E+00      0.5043754529E+00
          0                 2           2             5    4     1      -0.4285920960E-03       5    4    1        -0.2381013646E-01      0.5032140004E-01
          0                 3           1             5    4     1       0.2918551739E-04       5    4    1         0.1666709508E-02      0.3511994616E-02

    ------------------------------------------------
       NWT REQUIRED            3 OUTER ITERATIONS 
       AND A TOTAL OF          5 INNER ITERATIONS.
    ------------------------------------------------

 NO OUTPUT CONTROL FOR STRESS PERIOD    2   TIME STEP    4
 
 SOLVING FOR HEAD 
                                                   Max.-Head-Change                         Max.-Flux-Residual
  Residual-Control   Outer-Iter.   Inner-Iter.     Column Row Layer    Maximum-Head-Change  Column Row Layer    Maximum-Flux-Residual          L2-NORM 
          0                 1           2             5    4     1       0.4238682351E-02       5    4    1         0.2288807048E+00      0.4884229822E+00
          0                 2           2             5    4     1      -0.4123092549E-03       5    4    1        -0.2288814303E-01      0.4873921614E-01
          0                 3           1             5    4     1       0.2807671779E-04       5    4    1         0.1602170033E-02      0.3392911632E-02

    ------------------------------------------------
       NWT REQUIRED            3 OUTER ITERATIONS 
       AND A TOTAL OF          5 INNER ITERATIONS.
    ------------------------------------------------

 NO OUTPUT CONTROL FOR STRESS PERIOD    2   TIME STEP    5
 
 SOLVING FOR HEAD 
                                                   Max.-Head-Change                         Max.-Flux-Residual
  Residual-Control   Outer-Iter.   Inner-Iter.     Column Row Layer    Maximum-Head-Change  Column Row Layer    Maximum-Flux-Residual          L2-NORM 
          0                 1           2             5    4     1       0.4080580143E-02       5    4    1         0.2201755222E+00      0.4736659221E+00
          0                 2           2             5    4     1      -0.3969301356E-03       5    4    1        -0.2201761885E-01      0.4727557858E-01
          0                 3           1             5    4     1       0.2702945750E-04       5    4    1         0.1541233351E-02      0.3300765421E-02

    ------------------------------------------------
       NWT REQUIRED            3 OUTER ITERATIONS 
       AND A TOTAL OF          5 INNER ITERATIONS.
    ------------------------------------------------

 NO OUTPUT CONTROL FOR STRESS PERIOD    2   TIME STEP    6
 
 SOLVING FOR HEAD 
                                                   Max.-Head-Change                         Max.-Flux-Residual
  Residual-Control   Outer-Iter.   Inner-Iter.     Column Row Layer    Maximum-Head-Change  Column Row Layer    Maximum-Flux-Residual          L2-NORM 
          0                 1           2             5    4     1       0.3931653243E-02       5    4    1         0.2119781797E+00      0.4600304791E+00
          0                 2           2             5    4     1      -0.3824435323E-03       5    4    1        -0.2119787926E-01      0.4592262516E-01
          0                 3           1             5    4     1       0.2604297466E-04       5    4    1         0.1483851616E-02      0.3207116387E-02

    ------------------------------------------------
       NWT REQUIRED            3 OUTER ITERATIONS 
       AND A TOTAL OF          5 INNER ITERATIONS.
    ------------------------------------------------

 NO OUTPUT CONTROL FOR STRESS PERIOD    2   TIME STEP    7
 
 SOLVING FOR HEAD 
                                                   Max.-Head-Change                         Max.-Flux-Residual
  Residual-Control   Outer-Iter.   Inner-Iter.     Column Row Layer    Maximum-Head-Change  Column Row Layer    Maximum-Flux-Residual          L2-NORM 
          0                 1           2             5    4     1       0.3790839309E-02       5    4    1         0.2042304086E+00      0.4474023015E+00
          0                 2           2             5    4     1      -0.3687461059E-03       5    4    1        -0.2042309727E-01      0.4466884337E-01
          0                 3           1             5    4     1       0.2511023157E-04       5    4    1         0.1429616882E-02      0.3120310284E-02

    ------------------------------------------------
       NWT REQUIRED            3 OUTER ITERATIONS 
       AND A TOTAL OF          5 INNER ITERATIONS.
    ------------------------------------------------

 NO OUTPUT CONTROL FOR STRESS PERIOD    2   TIME STEP    8
 
 SOLVING FOR HEAD 
                                                   Max.-Head-Change                         Max.-Flux-Residual
  Residual-Control   Outer-Iter.   Inner-Iter.     Column Row Layer    Maximum-Head-Change  Column Row Layer    Maximum-Flux-Residual          L2-NORM 
          0                 1           2             5    4     1       0.3657864893E-02       5    4    1         0.1969163599E+00      0.4356955857E+00
          0                 2           2             5    4     1      -0.3558112573E-03       5    4    1        -0.1969168798E-01      0.4350630822E-01
          0                 3           1             5    4     1       0.2422941744E-04       5    4    1         0.1378418259E-02      0.3039686718E-02

    ------------------------------------------------
       NWT REQUIRED            3 OUTER ITERATIONS 
       AND A TOTAL OF          5 INNER ITERATIONS.
    ------------------------------------------------

 NO OUTPUT CONTROL FOR STRESS PERIOD    2   TIME STEP    9
 
 SOLVING FOR HEAD 
                                                   Max.-Head-Change                         Max.-Flux-Residual
  Residual-Control   Outer-Iter.   Inner-Iter.     Column Row Layer    Maximum-Head-Change  Column Row Layer    Maximum-Flux-Residual          L2-NORM 
          0                 1           2             5    4     1       0.3532230717E-02       5    4    1         0.1900087762E+00      0.4248478272E+00
          0                 2           2             5    4     1      -0.3435904201E-03       5    4    1        -0.1900092561E-01      0.4242866039E-01
          0                 3           1             5    4     1       0.2339722427E-04       5    4    1         0.1330064901E-02      0.2964939396E-02

    ------------------------------------------------
       NWT REQUIRED            3 OUTER ITERATIONS 
       AND A TOTAL OF          5 INNER ITERATIONS.
    ------------------------------------------------

 NO OUTPUT CONTROL FOR STRESS PERIOD    2   TIME STEP   10
 
 SOLVING FOR HEAD 
                                                   Max.-Head-Change                         Max.-Flux-Residual
  Residual-Control   Outer-Iter.   Inner-Iter.     Column Row Layer    Maximum-Head-Change  Column Row Layer    Maximum-Flux-Residual          L2-NORM 
          0                 1           2             5    4     1       0.3413719549E-02       5    4    1         0.1834948512E+00      0.4147737312E+00
          0                 2           2             5    4     1      -0.3320624627E-03       5    4    1        -0.1834952946E-01      0.4142762597E-01
          0                 3           1             5    4     1       0.2261221430E-04       5    4    1         0.1284467194E-02      0.2895348115E-02

    ------------------------------------------------
       NWT REQUIRED            3 OUTER ITERATIONS 
       AND A TOTAL OF          5 INNER ITERATIONS.
    ------------------------------------------------

 NO OUTPUT CONTROL FOR STRESS PERIOD    2   TIME STEP   11
 
 SOLVING FOR HEAD 
                                                   Max.-Head-Change                         Max.-Flux-Residual
  Residual-Control   Outer-Iter.   Inner-Iter.     Column Row Layer    Maximum-Head-Change  Column Row Layer    Maximum-Flux-Residual          L2-NORM 
          0                 1           2             5    4     1       0.3301408106E-02       5    4    1         0.1773240571E+00      0.4054018072E+00
          0                 2           2             5    4     1      -0.3211375735E-03       5    4    1        -0.1773244669E-01      0.4049650046E-01
          0                 3           1             5    4     1       0.2186827115E-04       5    4    1         0.1241271425E-02      0.2830701333E-02

    ------------------------------------------------
       NWT REQUIRED            3 OUTER ITERATIONS 
       AND A TOTAL OF          5 INNER ITERATIONS.
    ------------------------------------------------

 NO OUTPUT CONTROL FOR STRESS PERIOD    2   TIME STEP   12
 
 SOLVING FOR HEAD 
                                                   Max.-Head-Change                         Max.-Flux-Residual
  Residual-Control   Outer-Iter.   Inner-Iter.     Column Row Layer    Maximum-Head-Change  Column Row Layer    Maximum-Flux-Residual          L2-NORM 
          0                 1           2             5    4     1       0.3195383482E-02       5    4    1         0.1715009160E+00      0.3966854485E+00
          0                 2           2             5    4     1      -0.3108242248E-03       5    4    1        -0.1715012955E-01      0.3962962907E-01
          0                 3           1             5    4     1       0.2116597068E-04       5    4    1         0.1200509218E-02      0.2770761791E-02

    ------------------------------------------------
       NWT REQUIRED            3 OUTER ITERATIONS 
       AND A TOTAL OF          5 INNER ITERATIONS.
    ------------------------------------------------

 NO OUTPUT CONTROL FOR STRESS PERIOD    2   TIME STEP   13
 
 SOLVING FOR HEAD 
                                                   Max.-Head-Change                         Max.-Flux-Residual
  Residual-Control   Outer-Iter.   Inner-Iter.     Column Row Layer    Maximum-Head-Change  Column Row Layer    Maximum-Flux-Residual          L2-NORM 
          0                 1           2             5    4     1       0.3094775330E-02       5    4    1         0.1659775505E+00      0.3885594719E+00
          0                 2           2             5    4     1      -0.3010377553E-03       5    4    1        -0.1659779024E-01      0.3882159722E-01
          0                 3           1             5    4     1       0.2049954915E-04       5    4    1         0.1161845472E-02      0.2714249324E-02

    ------------------------------------------------
       NWT REQUIRED            3 OUTER ITERATIONS 
       AND A TOTAL OF          5 INNER ITERATIONS.
    ------------------------------------------------

 NO OUTPUT CONTROL FOR STRESS PERIOD    2   TIME STEP   14
 
 SOLVING FOR HEAD 
                                                   Max.-Head-Change                         Max.-Flux-Residual
  Residual-Control   Outer-Iter.   Inner-Iter.     Column Row Layer    Maximum-Head-Change  Column Row Layer    Maximum-Flux-Residual          L2-NORM 
          0                 1           2             5    4     1       0.2999970605E-02       5    4    1         0.1607742615E+00      0.3809929272E+00
          0                 2           2             5    4     1      -0.2918158043E-03       5    4    1        -0.1607745879E-01      0.3806886619E-01
          0                 3           1             5    4     1       0.1987156976E-04       5    4    1         0.1125422302E-02      0.2661632049E-02

    ------------------------------------------------
       NWT REQUIRED            3 OUTER ITERATIONS 
       AND A TOTAL OF          5 INNER ITERATIONS.
    ------------------------------------------------

 NO OUTPUT CONTROL FOR STRESS PERIOD    2   TIME STEP   15
 
 SOLVING FOR HEAD 
                                                   Max.-Head-Change                         Max.-Flux-Residual
  Residual-Control   Outer-Iter.   Inner-Iter.     Column Row Layer    Maximum-Head-Change  Column Row Layer    Maximum-Flux-Residual          L2-NORM 
          0                 1           2             5    4     1       0.2909894133E-02       5    4    1         0.1558326278E+00      0.3739168287E+00
          0                 2           2             5    4     1      -0.2830537859E-03       5    4    1        -0.1558329309E-01      0.3736461672E-01
          0                 3           1             5    4     1       0.1927490911E-04       5    4    1         0.1090830688E-02      0.2613132679E-02

    ------------------------------------------------
       NWT REQUIRED            3 OUTER ITERATIONS 
       AND A TOTAL OF          5 INNER ITERATIONS.
    ------------------------------------------------

 NO OUTPUT CONTROL FOR STRESS PERIOD    2   TIME STEP   16
 
 SOLVING FOR HEAD 
                                                   Max.-Head-Change                         Max.-Flux-Residual
  Residual-Control   Outer-Iter.   Inner-Iter.     Column Row Layer    Maximum-Head-Change  Column Row Layer    Maximum-Flux-Residual          L2-NORM 
          0                 1           2             5    4     1       0.2824734863E-02       5    4    1         0.1511623075E+00      0.3673111807E+00
          0                 2           2             5    4     1      -0.2747700809E-03       5    4    1        -0.1511625894E-01      0.3670736776E-01
          0                 3           1             5    4     1       0.1871082037E-04       5    4    1         0.1058138327E-02      0.2567288440E-02

    ------------------------------------------------
       NWT REQUIRED            3 OUTER ITERATIONS 
       AND A TOTAL OF          5 INNER ITERATIONS.
    ------------------------------------------------

 NO OUTPUT CONTROL FOR STRESS PERIOD    2   TIME STEP   17
 
 SOLVING FOR HEAD 
                                                   Max.-Head-Change                         Max.-Flux-Residual
  Residual-Control   Outer-Iter.   Inner-Iter.     Column Row Layer    Maximum-Head-Change  Column Row Layer    Maximum-Flux-Residual          L2-NORM 
          0                 1           2             5    4     1       0.2743946426E-02       5    4    1         0.1467338546E+00      0.3611127105E+00
          0                 2           2             5    4     1      -0.2669115403E-03       5    4    1        -0.1467341169E-01      0.3609011799E-01
          0                 3           1             5    4     1       0.1817568341E-04       5    4    1         0.1027139001E-02      0.2524367373E-02

    ------------------------------------------------
       NWT REQUIRED            3 OUTER ITERATIONS 
       AND A TOTAL OF          5 INNER ITERATIONS.
    ------------------------------------------------

 NO OUTPUT CONTROL FOR STRESS PERIOD    2   TIME STEP   18
 
 SOLVING FOR HEAD 
                                                   Max.-Head-Change                         Max.-Flux-Residual
  Residual-Control   Outer-Iter.   Inner-Iter.     Column Row Layer    Maximum-Head-Change  Column Row Layer    Maximum-Flux-Residual          L2-NORM 
          0                 1           2             5    4     1       0.2667268038E-02       5    4    1         0.1425320216E+00      0.3553068421E+00
          0                 2           2             5    4     1      -0.2594527984E-03       5    4    1        -0.1425322661E-01      0.3551211763E-01
          0                 3           1             5    4     1       0.1766777121E-04       5    4    1         0.9977260584E-03      0.2484188808E-02

    ------------------------------------------------
       NWT REQUIRED            3 OUTER ITERATIONS 
       AND A TOTAL OF          5 INNER ITERATIONS.
    ------------------------------------------------

 NO OUTPUT CONTROL FOR STRESS PERIOD    2   TIME STEP   19
 
 SOLVING FOR HEAD 
                                                   Max.-Head-Change                         Max.-Flux-Residual
  Residual-Control   Outer-Iter.   Inner-Iter.     Column Row Layer    Maximum-Head-Change  Column Row Layer    Maximum-Flux-Residual          L2-NORM 
          0                 1           2             5    4     1       0.2594683983E-02       5    4    1         0.1385563688E+00      0.3498585297E+00
          0                 2           2             5    4     1      -0.2523923255E-03       5    4    1        -0.1385565966E-01      0.3496833284E-01
          0                 3           1             5    4     1       0.1718698058E-04       5    4    1         0.9698963991E-03      0.2445351596E-02

    ------------------------------------------------
       NWT REQUIRED            3 OUTER ITERATIONS 
       AND A TOTAL OF          5 INNER ITERATIONS.
    ------------------------------------------------

 NO OUTPUT CONTROL FOR STRESS PERIOD    2   TIME STEP   20
 
 SOLVING FOR HEAD 
                                                   Max.-Head-Change                         Max.-Flux-Residual
  Residual-Control   Outer-Iter.   Inner-Iter.     Column Row Layer    Maximum-Head-Change  Column Row Layer    Maximum-Flux-Residual          L2-NORM 
          0                 1           2             5    4     1       0.2525710428E-02       5    4    1         0.1347799189E+00      0.3447336484E+00
          0                 2           2             5    4     1      -0.2456830574E-03       5    4    1        -0.1347801315E-01      0.3445875249E-01
          0                 3           1             5    4     1       0.1673010484E-04       5    4    1         0.9434611266E-03      0.2410794725E-02

    ------------------------------------------------
       NWT REQUIRED            3 OUTER ITERATIONS 
       AND A TOTAL OF          5 INNER ITERATIONS.
    ------------------------------------------------

 NO OUTPUT CONTROL FOR STRESS PERIOD    2   TIME STEP   21
 
 SOLVING FOR HEAD 
                                                   Max.-Head-Change                         Max.-Flux-Residual
  Residual-Control   Outer-Iter.   Inner-Iter.     Column Row Layer    Maximum-Head-Change  Column Row Layer    Maximum-Flux-Residual          L2-NORM 
          0                 1           2             5    4     1       0.2460369807E-02       5    4    1         0.1312037485E+00      0.3399137436E+00
          0                 2           2             5    4     1      -0.2393271763E-03       5    4    1        -0.1312039469E-01      0.3397841903E-01
          0                 3           1             5    4     1       0.1629729380E-04       5    4    1         0.9184278483E-03      0.2377583566E-02

    ------------------------------------------------
       NWT REQUIRED            3 OUTER ITERATIONS 
       AND A TOTAL OF          5 INNER ITERATIONS.
    ------------------------------------------------

 NO OUTPUT CONTROL FOR STRESS PERIOD    2   TIME STEP   22
 
 SOLVING FOR HEAD 
                                                   Max.-Head-Change                         Max.-Flux-Residual
  Residual-Control   Outer-Iter.   Inner-Iter.     Column Row Layer    Maximum-Head-Change  Column Row Layer    Maximum-Flux-Residual          L2-NORM 
          0                 1           2             5    4     1       0.2398203638E-02       5    4    1         0.1278028582E+00      0.3353733925E+00
          0                 2           2             5    4     1      -0.2332800849E-03       5    4    1        -0.1278030441E-01      0.3352588491E-01
          0                 3           1             5    4     1       0.1588550929E-04       5    4    1         0.8946215098E-03      0.2345842616E-02

    ------------------------------------------------
       NWT REQUIRED            3 OUTER ITERATIONS 
       AND A TOTAL OF          5 INNER ITERATIONS.
    ------------------------------------------------

 NO OUTPUT CONTROL FOR STRESS PERIOD    2   TIME STEP   23
 
 SOLVING FOR HEAD 
                                                   Max.-Head-Change                         Max.-Flux-Residual
  Residual-Control   Outer-Iter.   Inner-Iter.     Column Row Layer    Maximum-Head-Change  Column Row Layer    Maximum-Flux-Residual          L2-NORM 
          0                 1           2             5    4     1       0.2339267583E-02       5    4    1         0.1245796846E+00      0.3310885162E+00
          0                 2           2             5    4     1      -0.2275471971E-03       5    4    1        -0.1245798585E-01      0.3309845574E-01
          0                 3           1             5    4     1       0.1549512170E-04       5    4    1         0.8720592259E-03      0.2315908254E-02

    ------------------------------------------------
       NWT REQUIRED            3 OUTER ITERATIONS 
       AND A TOTAL OF          5 INNER ITERATIONS.
    ------------------------------------------------

 NO OUTPUT CONTROL FOR STRESS PERIOD    2   TIME STEP   24
 
 SOLVING FOR HEAD 
                                                   Max.-Head-Change                         Max.-Flux-Residual
  Residual-Control   Outer-Iter.   Inner-Iter.     Column Row Layer    Maximum-Head-Change  Column Row Layer    Maximum-Flux-Residual          L2-NORM 
          0                 1           2             5    4     1       0.2283365807E-02       5    4    1         0.1215238963E+00      0.3270408967E+00
          0                 2           2             5    4     1      -0.2221094624E-03       5    4    1        -0.1215240592E-01      0.3269504380E-01
          0                 3           1             5    4     1       0.1512483216E-04       5    4    1         0.8506686040E-03      0.2287850386E-02

    ------------------------------------------------
       NWT REQUIRED            3 OUTER ITERATIONS 
       AND A TOTAL OF          5 INNER ITERATIONS.
    ------------------------------------------------

 NO OUTPUT CONTROL FOR STRESS PERIOD    2   TIME STEP   25
 
 SOLVING FOR HEAD 
                                                   Max.-Head-Change                         Max.-Flux-Residual
  Residual-Control   Outer-Iter.   Inner-Iter.     Column Row Layer    Maximum-Head-Change  Column Row Layer    Maximum-Flux-Residual          L2-NORM 
          0                 1           2             5    4     1       0.2230079956E-02       5    4    1         0.1186123939E+00      0.3232037394E+00
          0                 2           2             5    4     1      -0.2169261876E-03       5    4    1        -0.1186125467E-01      0.3231219780E-01
          0                 3           1             5    4     1       0.1477187090E-04       5    4    1         0.8302880278E-03      0.2261059292E-02

    ------------------------------------------------
       NWT REQUIRED            3 OUTER ITERATIONS 
       AND A TOTAL OF          5 INNER ITERATIONS.
    ------------------------------------------------

 NO OUTPUT CONTROL FOR STRESS PERIOD    2   TIME STEP   26
 
 SOLVING FOR HEAD 
                                                   Max.-Head-Change                         Max.-Flux-Residual
  Residual-Control   Outer-Iter.   Inner-Iter.     Column Row Layer    Maximum-Head-Change  Column Row Layer    Maximum-Flux-Residual          L2-NORM 
          0                 1           2             5    4     1       0.2179256467E-02       5    4    1         0.1158365227E+00      0.3195661986E+00
          0                 2           2             5    4     1      -0.2119824347E-03       5    4    1        -0.1158366662E-01      0.3194947110E-01
          0                 3           1             5    4     1       0.1443522021E-04       5    4    1         0.8108568682E-03      0.2235822811E-02

    ------------------------------------------------
       NWT REQUIRED            3 OUTER ITERATIONS 
       AND A TOTAL OF          5 INNER ITERATIONS.
    ------------------------------------------------

 NO OUTPUT CONTROL FOR STRESS PERIOD    2   TIME STEP   27
 
 SOLVING FOR HEAD 
                                                   Max.-Head-Change                         Max.-Flux-Residual
  Residual-Control   Outer-Iter.   Inner-Iter.     Column Row Layer    Maximum-Head-Change  Column Row Layer    Maximum-Flux-Residual          L2-NORM 
          0                 1           2             5    4     1       0.2131225178E-02       5    4    1         0.1132144844E+00      0.3161253532E+00
          0                 2           2             5    4     1      -0.2073102874E-03       5    4    1        -0.1132146191E-01      0.3160618070E-01
          0                 3           1             5    4     1       0.1411706530E-04       5    4    1         0.7925025466E-03      0.2211837125E-02

    ------------------------------------------------
       NWT REQUIRED            3 OUTER ITERATIONS 
       AND A TOTAL OF          5 INNER ITERATIONS.
    ------------------------------------------------

 NO OUTPUT CONTROL FOR STRESS PERIOD    2   TIME STEP   28
 
 SOLVING FOR HEAD 
                                                   Max.-Head-Change                         Max.-Flux-Residual
  Residual-Control   Outer-Iter.   Inner-Iter.     Column Row Layer    Maximum-Head-Change  Column Row Layer    Maximum-Flux-Residual          L2-NORM 
          0                 1           2             5    4     1       0.2085111186E-02       5    4    1         0.1106979714E+00      0.3128358781E+00
          0                 2           2             5    4     1      -0.2028246414E-03       5    4    1        -0.1106980979E-01      0.3126961232E-01
          0                 3           1             5    4     1       0.1381160981E-04       5    4    1         0.7748868925E-03      0.2188488445E-02

    ------------------------------------------------
       NWT REQUIRED            3 OUTER ITERATIONS 
       AND A TOTAL OF          5 INNER ITERATIONS.
    ------------------------------------------------

 NO OUTPUT CONTROL FOR STRESS PERIOD    2   TIME STEP   29
 
 SOLVING FOR HEAD 
                                                   Max.-Head-Change                         Max.-Flux-Residual
  Residual-Control   Outer-Iter.   Inner-Iter.     Column Row Layer    Maximum-Head-Change  Column Row Layer    Maximum-Flux-Residual          L2-NORM 
          0                 1           2             5    4     1       0.2041517159E-02       5    4    1         0.1083201129E+00      0.3097361249E+00
          0                 2           2             5    4     1      -0.1985841212E-03       5    4    1        -0.1083202321E-01      0.3096861902E-01
          0                 3           1             5    4     1       0.1352284664E-04       5    4    1         0.7582418393E-03      0.2167336039E-02

    ------------------------------------------------
       NWT REQUIRED            3 OUTER ITERATIONS 
       AND A TOTAL OF          5 INNER ITERATIONS.
    ------------------------------------------------

 NO OUTPUT CONTROL FOR STRESS PERIOD    2   TIME STEP   30



 STREAM LISTING     PERIOD      2   STEP       30

 LAYER ROW COL. STREAM  RCH.  FLOW INTO     FLOW TO   FLOW OUT OF   OVRLND.     DIRECT     STREAM       STREAM     STREAM     STREAM   STREAMBED  STREAMBED
                SEG.NO.  NO.  STRM. RCH.    AQUIFER    STRM. RCH.    RUNOFF     PRECIP       ET          HEAD       DEPTH      WIDTH   CONDCTNC.   GRADIENT

   1    1    1     1     1    8.2500E+00  1.3178E-01   8.1182E+00  0.000E+00  0.000E+00  0.000E+00  1.09389E+03  8.424E-01  7.622E+00  3.430E-02  1.281E+00
   1    2    2     1     2    8.1182E+00  2.0240E-01   7.9158E+00  0.000E+00  0.000E+00  0.000E+00  1.08890E+03  8.367E-01  7.536E+00  5.276E-02  1.279E+00
   1    3    3     1     3    7.9158E+00  1.7099E-01   7.7448E+00  0.000E+00  0.000E+00  0.000E+00  1.08325E+03  8.302E-01  7.440E+00  4.464E-02  1.277E+00
   1    3    4     1     4    7.7448E+00  1.5612E-01   7.5887E+00  0.000E+00  0.000E+00  0.000E+00  1.07823E+03  8.244E-01  7.355E+00  4.082E-02  1.275E+00
   1    4    5     2     1    5.5887E+00  2.7178E-01   5.3169E+00  0.000E+00  0.000E+00  0.000E+00  1.07242E+03  4.843E-01  1.200E+01  7.800E-02  1.161E+00
   1    5    6     2     2    5.3169E+00  2.0828E-01   5.1087E+00  0.000E+00  0.000E+00  0.000E+00  1.06698E+03  4.714E-01  1.200E+01  6.000E-02  1.157E+00
   1    6    6     2     3    5.1087E+00  2.0760E-01   4.9010E+00  0.000E+00  0.000E+00  0.000E+00  1.06225E+03  4.600E-01  1.200E+01  6.000E-02  1.153E+00
   1    7    6     2     4    4.9010E+00  2.0691E-01   4.6941E+00  0.000E+00  0.000E+00  0.000E+00  1.05752E+03  4.485E-01  1.200E+01  6.000E-02  1.149E+00
   1    8    6     2     5    4.6941E+00  2.0621E-01   4.4879E+00  0.000E+00  0.000E+00  0.000E+00  1.05280E+03  4.368E-01  1.200E+01  6.000E-02  1.146E+00
   1    3    5     3     1    2.0000E+00  2.8252E-01   1.7175E+00  0.000E+00  0.000E+00  0.000E+00  1.07555E+03  1.909E+00  9.636E+00  7.227E-02  1.955E+00
   1    3    6     3     2    1.7175E+00  2.4905E-01   1.4684E+00  0.000E+00  0.000E+00  0.000E+00  1.07264E+03  1.727E+00  8.909E+00  6.682E-02  1.864E+00
   1    3    7     3     3    1.4684E+00  1.9718E-01   1.2712E+00  0.000E+00  0.000E+00  0.000E+00  1.06987E+03  1.555E+00  8.218E+00  5.547E-02  1.777E+00
   1    4    8     3     4    1.2712E+00  2.2567E-01   1.0456E+00  0.000E+00  0.000E+00  0.000E+00  1.06682E+03  1.364E+00  7.455E+00  6.709E-02  1.682E+00
   1    5    8     3     5    1.0456E+00  1.5790E-01   8.8768E-01  0.000E+00  0.000E+00  0.000E+00  1.06362E+03  1.164E+00  6.655E+00  4.991E-02  1.582E+00
   1    6    8     3     6    8.8768E-01  5.5980E-02   8.3170E-01  0.000E+00  0.000E+00  0.000E+00  1.06158E+03  1.036E+00  6.145E+00  1.844E-02  1.518E+00
   1    5   10     4     1    1.0000E+01  9.0919E-02   9.9091E+00  0.000E+00  0.000E+00  0.000E+00  1.07836E+03  6.368E-01  1.000E+01  2.500E-02  1.212E+00
   1    5    9     4     2    9.9091E+00  1.8158E-01   9.7275E+00  0.000E+00  0.000E+00  0.000E+00  1.07154E+03  6.315E-01  1.000E+01  5.000E-02  1.211E+00
   1    6    8     4     3    9.7275E+00  1.2689E-01   9.6006E+00  0.000E+00  0.000E+00  0.000E+00  1.06381E+03  6.256E-01  1.000E+01  3.500E-02  1.209E+00
   1    6    8     5     1    1.0432E+01  2.2686E-01   1.0205E+01  0.000E+00  0.000E+00  0.000E+00  1.05868E+03  6.790E-01  1.542E+01  6.166E-02  1.226E+00
   1    7    7     5     2    1.0205E+01  2.7894E-01   9.9265E+00  0.000E+00  0.000E+00  0.000E+00  1.05417E+03  6.732E-01  1.519E+01  7.594E-02  1.224E+00
   1    8    7     5     3    9.9265E+00  1.9221E-01   9.7343E+00  0.000E+00  0.000E+00  0.000E+00  1.04992E+03  6.676E-01  1.497E+01  5.241E-02  1.223E+00
   1    8    6     5     4    9.7343E+00  1.3577E-01   9.5985E+00  0.000E+00  0.000E+00  0.000E+00  1.04691E+03  6.637E-01  1.482E+01  3.706E-02  1.221E+00
   1    9    6     6     1    1.4086E+01  2.3167E-01   1.3855E+01  0.000E+00  0.000E+00  0.000E+00  1.04359E+03  8.612E-01  1.200E+01  6.000E-02  1.287E+00
   1   10    7     6     2    1.3855E+01  2.3116E-01   1.3624E+01  0.000E+00  0.000E+00  0.000E+00  1.03903E+03  8.526E-01  1.200E+01  6.000E-02  1.284E+00
   1   11    7     6     3    1.3624E+01  2.3064E-01   1.3393E+01  0.000E+00  0.000E+00  0.000E+00  1.03448E+03  8.440E-01  1.200E+01  6.000E-02  1.281E+00
   1   12    7     6     4    1.3393E+01  2.3012E-01   1.3163E+01  0.000E+00  0.000E+00  0.000E+00  1.02993E+03  8.353E-01  1.200E+01  6.000E-02  1.278E+00
   1   13    7     6     5    1.3163E+01 -2.0977E-02   1.3184E+01  0.000E+00  0.000E+00  0.000E+00  1.02674E+03  8.314E-01  1.200E+01  2.400E-01 -2.913E-02
   1   14    9     7     1    1.5000E+02  1.3658E+00   1.4863E+02  0.000E+00  0.000E+00  0.000E+00  1.03987E+03  2.288E+00  5.529E+01  5.593E-01  8.140E-01
   1   13    8     7     2    1.4863E+02  1.9203E+00   1.4671E+02  0.000E+00  0.000E+00  0.000E+00  1.03478E+03  2.279E+00  5.526E+01  6.148E-01  1.041E+00
   1   13    7     7     3    1.4671E+02  1.5976E+00   1.4512E+02  0.000E+00  0.000E+00  0.000E+00  1.02969E+03  2.270E+00  5.521E+01  5.584E-01  9.537E-01
   1   13    6     8     1    1.5830E+02  9.7214E-01   1.5733E+02  0.000E+00  0.000E+00  0.000E+00  1.02475E+03  2.871E+00  4.163E+01  4.242E-01  7.639E-01
   1   13    5     8     2    1.5733E+02  2.2507E-01   1.5710E+02  0.000E+00  0.000E+00  0.000E+00  1.01849E+03  2.867E+00  4.157E+01  4.236E-01  1.771E-01
   1   13    4     8     3    1.5710E+02 -2.2709E+00   1.5937E+02  0.000E+00  0.000E+00  0.000E+00  1.01225E+03  2.874E+00  4.167E+01  4.246E+00 -1.783E-01
   1   13    3     8     4    1.5937E+02 -3.5514E+00   1.6293E+02  0.000E+00  0.000E+00  0.000E+00  1.00602E+03  2.894E+00  4.196E+01  4.276E+00 -2.769E-01
   1   13    2     8     5    1.6293E+02 -2.5395E+00   1.6546E+02  0.000E+00  0.000E+00  0.000E+00  9.99789E+02  2.914E+00  4.225E+01  4.306E+00 -1.966E-01
   1   13    1     8     6    1.6546E+02 -1.9547E+00   1.6742E+02  0.000E+00  0.000E+00  0.000E+00  9.94804E+02  2.929E+00  4.247E+01  2.597E+00 -2.509E-01
   1    8    6     9     1    0.0000E+00  0.0000E+00   0.0000E+00  0.000E+00  0.000E+00  0.000E+00  1.07875E+03  0.000E+00  4.000E+00  0.000E+00  1.000E+00
   1    8    5     9     2    0.0000E+00  0.0000E+00   0.0000E+00  0.000E+00  0.000E+00  0.000E+00  1.07825E+03  0.000E+00  4.000E+00  0.000E+00  1.000E+00





UNSATURATED ZONE PACKAGE VOLUMETRIC BUDGET FOR  TIME STEP    30 STRESS PERIOD    2
  ------------------------------------------------------------------------------



     CUMULATIVE VOLUMES      L**3       RATES FOR THIS TIME STEP      L**3/T
     ------------------                 ------------------------

           IN:                                      IN:
           ---                                      ---
        INFILTRATION =    11664948.5581          INFILTRATION =           4.4075

          OUT:                                     OUT:
          ----                                     ----
              UZF ET =     1906749.8895                UZF ET =           0.7250
        UZF RECHARGE =       73224.0000          UZF RECHARGE =       0.0000E+00

            IN - OUT =     9684974.6686              IN - OUT =           3.6825

          STORAGE:                                 STORAGE:
          --------                                 --------
      STORAGE CHANGE =     9684974.6082        STORAGE CHANGE =           3.6825

 PERCENT DISCREPANCY IS DIFFERENCE BETWEEN IN-OUT MINUS CHANGE IN STORAGE
 DIVIDED BY THE AVERAGE OF IN AND OUT TIMES 100

 PERCENT DISCREPANCY =           0.00     PERCENT DISCREPANCY =           0.00






1
  VOLUMETRIC BUDGET FOR AGRICULTURAL FIELDS AT  END OF TIME STEP   30, STRESS PERIOD   2
  ------------------------------------------------------------------------------

     CUMULATIVE VOLUMES      L**3       RATES FOR THIS TIME STEP      L**3/T
     ------------------                 ------------------------

           IN:                                      IN:
           ---                                      ---
               AG WELLS  =           0.0000                 AG WELLS  =           0.0000
      DIVERSION SEGMENTS =           0.0000        DIVERSION SEGMENTS =           0.0000
           GW IRRIGATION =           0.0000             GW IRRIGATION =           0.0000
           SW IRRIGATION =           0.0000             SW IRRIGATION =           0.0000
        SYSTEM LOSSES GW =           0.0000          SYSTEM LOSSES GW =           0.0000
        SYSTEM LOSSES SW =           0.0000          SYSTEM LOSSES SW =           0.0000

                TOTAL IN =           0.0000                  TOTAL IN =           0.0000

          OUT:                                     OUT:
          ----                                     ----
               AG WELLS  =           0.0000                 AG WELLS  =           0.0000
      DIVERSION SEGMENTS =           0.0000        DIVERSION SEGMENTS =           0.0000
           GW IRRIGATION =           0.0000             GW IRRIGATION =           0.0000
           SW IRRIGATION =           0.0000             SW IRRIGATION =           0.0000
        SYSTEM LOSSES GW =           0.0000          SYSTEM LOSSES GW =           0.0000
        SYSTEM LOSSES SW =           0.0000          SYSTEM LOSSES SW =           0.0000

               TOTAL OUT =           0.0000                 TOTAL OUT =           0.0000

                IN - OUT =           0.0000                  IN - OUT =           0.0000

     PERCENT DISCREPANCY =           0.00         PERCENT DISCREPANCY =           0.00



1
  VOLUMETRIC BUDGET FOR ENTIRE MODEL AT END OF TIME STEP   30, STRESS PERIOD   2
  ------------------------------------------------------------------------------

     CUMULATIVE VOLUMES      L**3       RATES FOR THIS TIME STEP      L**3/T
     ------------------                 ------------------------

           IN:                                      IN:
           ---                                      ---
             STORAGE     =     1698293.6250               STORAGE     =           0.5858
       CONSTANT HEAD     =           0.0000         CONSTANT HEAD     =           0.0000
     HEAD DEP BOUNDS     =      781723.8750       HEAD DEP BOUNDS     =           0.2878
      STREAM LEAKAGE     =    30218964.0000        STREAM LEAKAGE     =          11.1681
        UZF RECHARGE     =       73223.9531          UZF RECHARGE     =           0.0000
               GW ET     =           0.0000                 GW ET     =           0.0000
     SURFACE LEAKAGE     =           0.0000       SURFACE LEAKAGE     =           0.0000
           AG WELLS      =           0.0000             AG WELLS      =           0.0000

                TOTAL IN =    32772206.0000                  TOTAL IN =          12.0417

          OUT:                                     OUT:
          ----                                     ----
             STORAGE     =     4124338.5000               STORAGE     =           1.4173
       CONSTANT HEAD     =           0.0000         CONSTANT HEAD     =           0.0000
     HEAD DEP BOUNDS     =      779352.1875       HEAD DEP BOUNDS     =           0.2872
      STREAM LEAKAGE     =    27869198.0000        STREAM LEAKAGE     =          10.3374
        UZF RECHARGE     =           0.0000          UZF RECHARGE     =           0.0000
               GW ET     =           0.0000                 GW ET     =           0.0000
     SURFACE LEAKAGE     =           0.0000       SURFACE LEAKAGE     =           0.0000
           AG WELLS      =           0.0000             AG WELLS      =           0.0000

               TOTAL OUT =    32772888.0000                 TOTAL OUT =          12.0419

                IN - OUT =        -682.0000                  IN - OUT =      -2.3365E-04

     PERCENT DISCREPANCY =          -0.00         PERCENT DISCREPANCY =          -0.00






         TIME SUMMARY AT END OF TIME STEP   30 IN STRESS PERIOD    2
                    SECONDS     MINUTES      HOURS       DAYS        YEARS
                    -----------------------------------------------------------
   TIME STEP LENGTH  87667.      1461.1      24.352      1.0147     2.77799E-03
 STRESS PERIOD TIME 2.63000E+06  43833.      730.56      30.440     8.33397E-02
         TOTAL TIME 2.71640E+06  45273.      754.56      31.440     8.60775E-02
1
1
                            STRESS PERIOD NO.    3, LENGTH =   2630000.    
                            -----------------------------------------------

                              NUMBER OF TIME STEPS =    30

                               MULTIPLIER FOR DELT =     1.000

                            INITIAL TIME STEP SIZE =   87666.66    

 REUSING NON-PARAMETER GHB CELLS FROM LAST STRESS PERIOD

      2 GHB CELLS

 REUSING STREAM SEGMENT DATA FROM LAST STRESS PERIOD



            AREAL INFILTRATION RATE
 READING ON UNIT   19 WITH FORMAT: (10F4.0)            

            1           2           3           4           5           6           7           8           9          10
 ........................................................................................................................
   1   1.2000E-09   0.000       0.000       0.000       0.000       0.000       0.000       0.000       0.000       0.000    
   2   2.1000E-09  2.0000E-09  8.0000E-10  8.5000E-09   0.000       0.000       0.000       0.000       0.000       0.000    
   3   5.0000E-10  1.1000E-09  8.8000E-09  5.5000E-09   0.000       0.000       0.000       0.000       0.000       0.000    
   4   8.5000E-09  1.1000E-09  1.1000E-09  1.1000E-09  2.0000E-09   0.000       0.000       0.000       0.000       0.000    
   5   8.5000E-09  1.1000E-09  1.1000E-09  1.1000E-09  1.1000E-09   0.000       0.000       0.000       0.000       0.000    
   6   8.5000E-09  5.2000E-09  2.1000E-09  1.1000E-09  1.5000E-09   0.000       0.000       0.000       0.000       0.000    
   7   8.5000E-09  5.2000E-09  2.1000E-09  1.2000E-09  2.0000E-09   0.000       0.000       0.000       0.000       0.000    
   8   5.0000E-10  5.2000E-09  2.1000E-09  1.2000E-09  5.0000E-09   0.000       0.000       0.000       0.000       0.000    
   9   5.0000E-10  5.2000E-09  2.1000E-09  1.2000E-09  5.0000E-09   0.000       0.000       0.000       0.000       0.000    
  10   5.0000E-10  5.2000E-09  2.1000E-09  1.2000E-09  5.8000E-09   0.000       0.000       0.000       0.000       0.000    
  11   1.0000E-10  1.1000E-09  1.1000E-09  1.2000E-09  5.0000E-09   0.000       0.000       0.000       0.000       0.000    
  12   1.1000E-09  1.1000E-09  1.1000E-09  1.1000E-09  2.0000E-09   0.000       0.000       0.000       0.000       0.000    
  13   1.1000E-09  2.2000E-09  2.2000E-09  2.1000E-09  1.0000E-09   0.000       0.000       0.000       0.000       0.000    
  14   2.0000E-10  5.5000E-09  5.5000E-09  5.2000E-09  1.0000E-09   0.000       0.000       0.000       0.000       0.000    
  15    0.000      8.8000E-09  8.8000E-09   0.000       0.000       0.000       0.000       0.000       0.000       0.000    

                  ET RATE =  5.000000E-10

 USING ET EXTINCTION DEPTH FROM PREVIOUS STRESS PERIOD. CURRENT PERIOD IS:       3

 USING EXTINCTION WATER CONTENT FROM PREVIOUS STRESS PERIOD. CURRENT PERIOD IS:       3

 USING AIR ENTRY PRESSURE FROM PREVIOUS STRESS PERIOD. CURRENT PERIOD IS:       3

 USING ROOT PRESSURE HEAD FROM PREVIOUS STRESS PERIOD. CURRENT PERIOD IS:       3

 USING ROOT ACTIVITY FROM PREVIOUS STRESS PERIOD. CURRENT PERIOD IS:       3

 PROCESSING AG STRESS PERIOD DATA

 READING AG STRESS PERIOD DATA

 READING IRRIGATION SEGMENT

 READING IRRIGATION WELL

 READING SUPPLEMENTAL WELL

 END PROCESSING AG STRESS PERIOD DATA OPTIONS
 
 SOLVING FOR HEAD 
                                                   Max.-Head-Change                         Max.-Flux-Residual
  Residual-Control   Outer-Iter.   Inner-Iter.     Column Row Layer    Maximum-Head-Change  Column Row Layer    Maximum-Flux-Residual          L2-NORM 
          0                 1           2             2    2     1       0.2525011411E-02       2    2    1         0.1319005140E+00      0.4039561933E+00
          0                 2           2             2    2     1      -0.2456150180E-03       2    2    1        -0.1319006884E-01      0.4182159887E-01
          0                 3           1             2    2     1       0.1672546959E-04       2    2    1         0.9233050496E-03      0.2911421437E-02

    ------------------------------------------------
       NWT REQUIRED            3 OUTER ITERATIONS 
       AND A TOTAL OF          5 INNER ITERATIONS.
    ------------------------------------------------

 NO OUTPUT CONTROL FOR STRESS PERIOD    3   TIME STEP    1
 
 SOLVING FOR HEAD 
                                                   Max.-Head-Change                         Max.-Flux-Residual
  Residual-Control   Outer-Iter.   Inner-Iter.     Column Row Layer    Maximum-Head-Change  Column Row Layer    Maximum-Flux-Residual          L2-NORM 
          0                 1           2             2    2     1       0.3324146315E-02       2    2    1         0.1736569715E+00      0.5146740245E+00
          0                 2           2             2    2     1      -0.3233492521E-03       2    2    1        -0.1736572779E-01      0.5101962438E-01
          0                 3           1             2    2     1       0.2201888056E-04       2    2    1         0.1215601175E-02      0.3529567416E-02

    ------------------------------------------------
       NWT REQUIRED            3 OUTER ITERATIONS 
       AND A TOTAL OF          5 INNER ITERATIONS.
    ------------------------------------------------

 NO OUTPUT CONTROL FOR STRESS PERIOD    3   TIME STEP    2
 
 SOLVING FOR HEAD 
                                                   Max.-Head-Change                         Max.-Flux-Residual
  Residual-Control   Outer-Iter.   Inner-Iter.     Column Row Layer    Maximum-Head-Change  Column Row Layer    Maximum-Flux-Residual          L2-NORM 
          0                 1           2             2    2     1       0.3301481187E-02       2    2    1         0.1724651378E+00      0.4998431502E+00
          0                 2           2             2    2     1      -0.3211445445E-03       2    2    1        -0.1724654384E-01      0.4958841579E-01
          0                 3           1             2    2     1       0.2186874900E-04       2    2    1         0.1207258316E-02      0.3434975045E-02

    ------------------------------------------------
       NWT REQUIRED            3 OUTER ITERATIONS 
       AND A TOTAL OF          5 INNER ITERATIONS.
    ------------------------------------------------

 NO OUTPUT CONTROL FOR STRESS PERIOD    3   TIME STEP    3
 
 SOLVING FOR HEAD 
                                                   Max.-Head-Change                         Max.-Flux-Residual
  Residual-Control   Outer-Iter.   Inner-Iter.     Column Row Layer    Maximum-Head-Change  Column Row Layer    Maximum-Flux-Residual          L2-NORM 
          0                 1           2             2    2     1       0.3279132530E-02       2    2    1         0.1712899746E+00      0.4865714415E+00
          0                 2           2             2    2     1      -0.3189706211E-03       2    2    1        -0.1712902696E-01      0.4830920447E-01
          0                 3           1             2    2     1       0.2172071247E-04       2    2    1         0.1199032129E-02      0.3349699057E-02

    ------------------------------------------------
       NWT REQUIRED            3 OUTER ITERATIONS 
       AND A TOTAL OF          5 INNER ITERATIONS.
    ------------------------------------------------

 NO OUTPUT CONTROL FOR STRESS PERIOD    3   TIME STEP    4
 
 SOLVING FOR HEAD 
                                                   Max.-Head-Change                         Max.-Flux-Residual
  Residual-Control   Outer-Iter.   Inner-Iter.     Column Row Layer    Maximum-Head-Change  Column Row Layer    Maximum-Flux-Residual          L2-NORM 
          0                 1           2             2    2     1       0.3257010826E-02       2    2    1         0.1701267847E+00      0.4746970453E+00
          0                 2           2             2    2     1      -0.3168187745E-03       2    2    1        -0.1701270743E-01      0.4716339850E-01
          0                 3           1             2    2     1       0.2157417976E-04       2    2    1         0.1190889771E-02      0.3273677861E-02

    ------------------------------------------------
       NWT REQUIRED            3 OUTER ITERATIONS 
       AND A TOTAL OF          5 INNER ITERATIONS.
    ------------------------------------------------

 NO OUTPUT CONTROL FOR STRESS PERIOD    3   TIME STEP    5
 
 SOLVING FOR HEAD 
                                                   Max.-Head-Change                         Max.-Flux-Residual
  Residual-Control   Outer-Iter.   Inner-Iter.     Column Row Layer    Maximum-Head-Change  Column Row Layer    Maximum-Flux-Residual          L2-NORM 
          0                 1           2             2    2     1       0.3235281548E-02       2    2    1         0.1689842331E+00      0.4640266983E+00
          0                 2           2             2    2     1      -0.3147050999E-03       2    2    1        -0.1689845172E-01      0.4613353853E-01
          0                 3           1             2    2     1       0.2143024668E-04       2    2    1         0.1182891873E-02      0.3204532040E-02

    ------------------------------------------------
       NWT REQUIRED            3 OUTER ITERATIONS 
       AND A TOTAL OF          5 INNER ITERATIONS.
    ------------------------------------------------

 NO OUTPUT CONTROL FOR STRESS PERIOD    3   TIME STEP    6
 
 SOLVING FOR HEAD 
                                                   Max.-Head-Change                         Max.-Flux-Residual
  Residual-Control   Outer-Iter.   Inner-Iter.     Column Row Layer    Maximum-Head-Change  Column Row Layer    Maximum-Flux-Residual          L2-NORM 
          0                 1           2             2    2     1       0.3213769433E-02       2    2    1         0.1678531571E+00      0.4544395855E+00
          0                 2           2             2    2     1      -0.3126125494E-03       2    2    1        -0.1678534359E-01      0.4520747157E-01
          0                 3           1             2    2     1       0.2128775162E-04       2    2    1         0.1174974290E-02      0.3143063201E-02

    ------------------------------------------------
       NWT REQUIRED            3 OUTER ITERATIONS 
       AND A TOTAL OF          5 INNER ITERATIONS.
    ------------------------------------------------

 NO OUTPUT CONTROL FOR STRESS PERIOD    3   TIME STEP    7
 
 SOLVING FOR HEAD 
                                                   Max.-Head-Change                         Max.-Flux-Residual
  Residual-Control   Outer-Iter.   Inner-Iter.     Column Row Layer    Maximum-Head-Change  Column Row Layer    Maximum-Flux-Residual          L2-NORM 
          0                 1           2             2    2     1       0.3192555266E-02       2    2    1         0.1667377764E+00      0.4457928585E+00
          0                 2           2             2    2     1      -0.3105489813E-03       2    2    1        -0.1667380498E-01      0.4437158309E-01
          0                 3           1             2    2     1       0.2114723041E-04       2    2    1         0.1167166594E-02      0.3087357644E-02

    ------------------------------------------------
       NWT REQUIRED            3 OUTER ITERATIONS 
       AND A TOTAL OF          5 INNER ITERATIONS.
    ------------------------------------------------

 NO OUTPUT CONTROL FOR STRESS PERIOD    3   TIME STEP    8
 
 SOLVING FOR HEAD 
                                                   Max.-Head-Change                         Max.-Flux-Residual
  Residual-Control   Outer-Iter.   Inner-Iter.     Column Row Layer    Maximum-Head-Change  Column Row Layer    Maximum-Flux-Residual          L2-NORM 
          0                 1           2             2    2     1       0.3171549517E-02       2    2    1         0.1656334081E+00      0.4379819802E+00
          0                 2           2             2    2     1      -0.3085056880E-03       2    2    1        -0.1656336768E-01      0.4361541002E-01
          0                 3           1             2    2     1       0.2100809020E-04       2    2    1         0.1159436005E-02      0.3036359595E-02

    ------------------------------------------------
       NWT REQUIRED            3 OUTER ITERATIONS 
       AND A TOTAL OF          5 INNER ITERATIONS.
    ------------------------------------------------

 NO OUTPUT CONTROL FOR STRESS PERIOD    3   TIME STEP    9
 
 SOLVING FOR HEAD 
                                                   Max.-Head-Change                         Max.-Flux-Residual
  Residual-Control   Outer-Iter.   Inner-Iter.     Column Row Layer    Maximum-Head-Change  Column Row Layer    Maximum-Flux-Residual          L2-NORM 
          0                 1           2             2    2     1       0.3150918695E-02       2    2    1         0.1645487178E+00      0.4309014827E+00
          0                 2           2             2    2     1      -0.3064988638E-03       2    2    1        -0.1645489814E-01      0.4292972511E-01
          0                 3           1             2    2     1       0.2087143268E-04       2    2    1         0.1151843134E-02      0.2990577417E-02

    ------------------------------------------------
       NWT REQUIRED            3 OUTER ITERATIONS 
       AND A TOTAL OF          5 INNER ITERATIONS.
    ------------------------------------------------

 NO OUTPUT CONTROL FOR STRESS PERIOD    3   TIME STEP   10
 
 SOLVING FOR HEAD 
                                                   Max.-Head-Change                         Max.-Flux-Residual
  Residual-Control   Outer-Iter.   Inner-Iter.     Column Row Layer    Maximum-Head-Change  Column Row Layer    Maximum-Flux-Residual          L2-NORM 
          0                 1           2             2    2     1       0.3130487481E-02       2    2    1         0.1634745952E+00      0.4244589616E+00
          0                 2           2             2    2     1      -0.3045114568E-03       2    2    1        -0.1634748542E-01      0.4230618474E-01
          0                 3           1             2    2     1       0.2073609746E-04       2    2    1         0.1144324234E-02      0.2950700135E-02

    ------------------------------------------------
       NWT REQUIRED            3 OUTER ITERATIONS 
       AND A TOTAL OF          5 INNER ITERATIONS.
    ------------------------------------------------

 NO OUTPUT CONTROL FOR STRESS PERIOD    3   TIME STEP   11
 
 SOLVING FOR HEAD 
                                                   Max.-Head-Change                         Max.-Flux-Residual
  Residual-Control   Outer-Iter.   Inner-Iter.     Column Row Layer    Maximum-Head-Change  Column Row Layer    Maximum-Flux-Residual          L2-NORM 
          0                 1           2             2    2     1       0.3110422235E-02       2    2    1         0.1624196942E+00      0.4185889498E+00
          0                 2           2             2    2     1      -0.3025596483E-03       2    2    1        -0.1624199484E-01      0.4173531306E-01
          0                 3           1             2    2     1       0.2060318672E-04       2    2    1         0.1136939903E-02      0.2910143635E-02

    ------------------------------------------------
       NWT REQUIRED            3 OUTER ITERATIONS 
       AND A TOTAL OF          5 INNER ITERATIONS.
    ------------------------------------------------

 NO OUTPUT CONTROL FOR STRESS PERIOD    3   TIME STEP   12
 
 SOLVING FOR HEAD 
                                                   Max.-Head-Change                         Max.-Flux-Residual
  Residual-Control   Outer-Iter.   Inner-Iter.     Column Row Layer    Maximum-Head-Change  Column Row Layer    Maximum-Flux-Residual          L2-NORM 
          0                 1           2             2    2     1       0.3090548088E-02       2    2    1         0.1613748959E+00      0.4132170316E+00
          0                 2           2             2    2     1      -0.3006264288E-03       2    2    1        -0.1613751454E-01      0.4121298117E-01
          0                 3           1             2    2     1       0.2047154171E-04       2    2    1         0.1129626278E-02      0.2874902546E-02

    ------------------------------------------------
       NWT REQUIRED            3 OUTER ITERATIONS 
       AND A TOTAL OF          5 INNER ITERATIONS.
    ------------------------------------------------

 NO OUTPUT CONTROL FOR STRESS PERIOD    3   TIME STEP   13
 
 SOLVING FOR HEAD 
                                                   Max.-Head-Change                         Max.-Flux-Residual
  Residual-Control   Outer-Iter.   Inner-Iter.     Column Row Layer    Maximum-Head-Change  Column Row Layer    Maximum-Flux-Residual          L2-NORM 
          0                 1           2             2    2     1       0.3070946317E-02       2    2    1         0.1603444421E+00      0.4082878673E+00
          0                 2           2             2    2     1      -0.2987197035E-03       2    2    1        -0.1603446870E-01      0.4073324610E-01
          0                 3           1             2    2     1       0.2034170062E-04       2    2    1         0.1122413053E-02      0.2842694245E-02

    ------------------------------------------------
       NWT REQUIRED            3 OUTER ITERATIONS 
       AND A TOTAL OF          5 INNER ITERATIONS.
    ------------------------------------------------

 NO OUTPUT CONTROL FOR STRESS PERIOD    3   TIME STEP   14
 
 SOLVING FOR HEAD 
                                                   Max.-Head-Change                         Max.-Flux-Residual
  Residual-Control   Outer-Iter.   Inner-Iter.     Column Row Layer    Maximum-Head-Change  Column Row Layer    Maximum-Flux-Residual          L2-NORM 
          0                 1           2             2    2     1       0.3051612636E-02       2    2    1         0.1593281106E+00      0.4037431457E+00
          0                 2           2             2    2     1      -0.2968390570E-03       2    2    1        -0.1593283511E-01      0.4029055032E-01
          0                 3           1             2    2     1       0.2021363553E-04       2    2    1         0.1115298705E-02      0.2812722266E-02

    ------------------------------------------------
       NWT REQUIRED            3 OUTER ITERATIONS 
       AND A TOTAL OF          5 INNER ITERATIONS.
    ------------------------------------------------

 NO OUTPUT CONTROL FOR STRESS PERIOD    3   TIME STEP   15
 
 SOLVING FOR HEAD 
                                                   Max.-Head-Change                         Max.-Flux-Residual
  Residual-Control   Outer-Iter.   Inner-Iter.     Column Row Layer    Maximum-Head-Change  Column Row Layer    Maximum-Flux-Residual          L2-NORM 
          0                 1           2             2    2     1       0.3032543282E-02       2    2    1         0.1583256794E+00      0.3995412162E+00
          0                 2           2             2    2     1      -0.2949841231E-03       2    2    1        -0.1583259159E-01      0.3988016270E-01
          0                 3           1             2    2     1       0.2008732183E-04       2    2    1         0.1108281673E-02      0.2785617360E-02

    ------------------------------------------------
       NWT REQUIRED            3 OUTER ITERATIONS 
       AND A TOTAL OF          5 INNER ITERATIONS.
    ------------------------------------------------

 NO OUTPUT CONTROL FOR STRESS PERIOD    3   TIME STEP   16
 
 SOLVING FOR HEAD 
                                                   Max.-Head-Change                         Max.-Flux-Residual
  Residual-Control   Outer-Iter.   Inner-Iter.     Column Row Layer    Maximum-Head-Change  Column Row Layer    Maximum-Flux-Residual          L2-NORM 
          0                 1           2             2    2     1       0.3013648836E-02       2    2    1         0.1573325165E+00      0.3956471881E+00
          0                 2           2             2    2     1      -0.2931462021E-03       2    2    1        -0.1573327488E-01      0.3949641397E-01
          0                 3           1             2    2     1       0.1996216663E-04       2    2    1         0.1101329502E-02      0.2755811634E-02

    ------------------------------------------------
       NWT REQUIRED            3 OUTER ITERATIONS 
       AND A TOTAL OF          5 INNER ITERATIONS.
    ------------------------------------------------

 NO OUTPUT CONTROL FOR STRESS PERIOD    3   TIME STEP   17
 
 SOLVING FOR HEAD 
                                                   Max.-Head-Change                         Max.-Flux-Residual
  Residual-Control   Outer-Iter.   Inner-Iter.     Column Row Layer    Maximum-Head-Change  Column Row Layer    Maximum-Flux-Residual          L2-NORM 
          0                 1           2             2    2     1       0.2995087305E-02       2    2    1         0.1563568164E+00      0.3920193915E+00
          0                 2           2             2    2     1      -0.2913406650E-03       2    2    1        -0.1563570445E-01      0.3914500190E-01
          0                 3           1             2    2     1       0.1983921558E-04       2    2    1         0.1094499563E-02      0.2735207009E-02

    ------------------------------------------------
       NWT REQUIRED            3 OUTER ITERATIONS 
       AND A TOTAL OF          5 INNER ITERATIONS.
    ------------------------------------------------

 NO OUTPUT CONTROL FOR STRESS PERIOD    3   TIME STEP   18
 
 SOLVING FOR HEAD 
                                                   Max.-Head-Change                         Max.-Flux-Residual
  Residual-Control   Outer-Iter.   Inner-Iter.     Column Row Layer    Maximum-Head-Change  Column Row Layer    Maximum-Flux-Residual          L2-NORM 
          0                 1           2             2    2     1       0.2976702302E-02       2    2    1         0.1553904630E+00      0.3886479850E+00
          0                 2           2             2    2     1      -0.2895522996E-03       2    2    1        -0.1553906870E-01      0.3881390928E-01
          0                 3           1             2    2     1       0.1971743511E-04       2    2    1         0.1087735078E-02      0.2712265260E-02

    ------------------------------------------------
       NWT REQUIRED            3 OUTER ITERATIONS 
       AND A TOTAL OF          5 INNER ITERATIONS.
    ------------------------------------------------

 NO OUTPUT CONTROL FOR STRESS PERIOD    3   TIME STEP   19
 
 SOLVING FOR HEAD 
                                                   Max.-Head-Change                         Max.-Flux-Residual
  Residual-Control   Outer-Iter.   Inner-Iter.     Column Row Layer    Maximum-Head-Change  Column Row Layer    Maximum-Flux-Residual          L2-NORM 
          0                 1           2             2    2     1       0.2958566594E-02       2    2    1         0.1544372196E+00      0.3854776506E+00
          0                 2           2             2    2     1      -0.2877881838E-03       2    2    1        -0.1544374397E-01      0.3850338209E-01
          0                 3           1             2    2     1       0.1959730520E-04       2    2    1         0.1081062347E-02      0.2691132282E-02

    ------------------------------------------------
       NWT REQUIRED            3 OUTER ITERATIONS 
       AND A TOTAL OF          5 INNER ITERATIONS.
    ------------------------------------------------

 NO OUTPUT CONTROL FOR STRESS PERIOD    3   TIME STEP   20
 
 SOLVING FOR HEAD 
                                                   Max.-Head-Change                         Max.-Flux-Residual
  Residual-Control   Outer-Iter.   Inner-Iter.     Column Row Layer    Maximum-Head-Change  Column Row Layer    Maximum-Flux-Residual          L2-NORM 
          0                 1           2             2    2     1       0.2940676291E-02       2    2    1         0.1534969020E+00      0.3824967631E+00
          0                 2           2             2    2     1      -0.2860479393E-03       2    2    1        -0.1534971185E-01      0.3821119447E-01
          0                 3           1             2    2     1       0.1947880076E-04       2    2    1         0.1074480083E-02      0.2674487834E-02

    ------------------------------------------------
       NWT REQUIRED            3 OUTER ITERATIONS 
       AND A TOTAL OF          5 INNER ITERATIONS.
    ------------------------------------------------

 NO OUTPUT CONTROL FOR STRESS PERIOD    3   TIME STEP   21
 
 SOLVING FOR HEAD 
                                                   Max.-Head-Change                         Max.-Flux-Residual
  Residual-Control   Outer-Iter.   Inner-Iter.     Column Row Layer    Maximum-Head-Change  Column Row Layer    Maximum-Flux-Residual          L2-NORM 
          0                 1           2             2    2     1       0.2923027634E-02       2    2    1         0.1525693083E+00      0.3797023744E+00
          0                 2           2             2    2     1      -0.2843312006E-03       2    2    1        -0.1525695208E-01      0.3793533718E-01
          0                 3           1             2    2     1       0.1936189766E-04       2    2    1         0.1067986913E-02      0.2652338412E-02

    ------------------------------------------------
       NWT REQUIRED            3 OUTER ITERATIONS 
       AND A TOTAL OF          5 INNER ITERATIONS.
    ------------------------------------------------

 NO OUTPUT CONTROL FOR STRESS PERIOD    3   TIME STEP   22
 
 SOLVING FOR HEAD 
                                                   Max.-Head-Change                         Max.-Flux-Residual
  Residual-Control   Outer-Iter.   Inner-Iter.     Column Row Layer    Maximum-Head-Change  Column Row Layer    Maximum-Flux-Residual          L2-NORM 
          0                 1           2             2    2     1       0.2905616549E-02       2    2    1         0.1516542438E+00      0.3770551376E+00
          0                 2           2             2    2     1      -0.2826375715E-03       2    2    1        -0.1516544528E-01      0.3767442254E-01
          0                 3           1             2    2     1       0.1924656772E-04       2    2    1         0.1061581431E-02      0.2634468838E-02

    ------------------------------------------------
       NWT REQUIRED            3 OUTER ITERATIONS 
       AND A TOTAL OF          5 INNER ITERATIONS.
    ------------------------------------------------

 NO OUTPUT CONTROL FOR STRESS PERIOD    3   TIME STEP   23
 
 SOLVING FOR HEAD 
                                                   Max.-Head-Change                         Max.-Flux-Residual
  Residual-Control   Outer-Iter.   Inner-Iter.     Column Row Layer    Maximum-Head-Change  Column Row Layer    Maximum-Flux-Residual          L2-NORM 
          0                 1           2             2    2     1       0.2888355525E-02       2    2    1         0.1507470597E+00      0.3745452425E+00
          0                 2           2             2    2     1      -0.2809585392E-03       2    2    1        -0.1507472653E-01      0.3742716415E-01
          0                 3           1             2    2     1       0.1913223181E-04       2    2    1         0.1055231121E-02      0.2617556667E-02

    ------------------------------------------------
       NWT REQUIRED            3 OUTER ITERATIONS 
       AND A TOTAL OF          5 INNER ITERATIONS.
    ------------------------------------------------

 NO OUTPUT CONTROL FOR STRESS PERIOD    3   TIME STEP   24
 
 SOLVING FOR HEAD 
                                                   Max.-Head-Change                         Max.-Flux-Residual
  Residual-Control   Outer-Iter.   Inner-Iter.     Column Row Layer    Maximum-Head-Change  Column Row Layer    Maximum-Flux-Residual          L2-NORM 
          0                 1           2             2    2     1       0.2871411094E-02       2    2    1         0.1498565308E+00      0.3721679668E+00
          0                 2           2             2    2     1      -0.2793103026E-03       2    2    1        -0.1498567328E-01      0.3719256404E-01
          0                 3           1             2    2     1       0.1901999306E-04       2    2    1         0.1048997389E-02      0.2601329861E-02

    ------------------------------------------------
       NWT REQUIRED            3 OUTER ITERATIONS 
       AND A TOTAL OF          5 INNER ITERATIONS.
    ------------------------------------------------

 NO OUTPUT CONTROL FOR STRESS PERIOD    3   TIME STEP   25
 
 SOLVING FOR HEAD 
                                                   Max.-Head-Change                         Max.-Flux-Residual
  Residual-Control   Outer-Iter.   Inner-Iter.     Column Row Layer    Maximum-Head-Change  Column Row Layer    Maximum-Flux-Residual          L2-NORM 
          0                 1           2             2    2     1       0.2854608839E-02       2    2    1         0.1489735422E+00      0.3699008647E+00
          0                 2           2             2    2     1      -0.2776758966E-03       2    2    1        -0.1489737409E-01      0.3696848467E-01
          0                 3           1             2    2     1       0.1890869651E-04       2    2    1         0.1042816454E-02      0.2585969685E-02

    ------------------------------------------------
       NWT REQUIRED            3 OUTER ITERATIONS 
       AND A TOTAL OF          5 INNER ITERATIONS.
    ------------------------------------------------

 NO OUTPUT CONTROL FOR STRESS PERIOD    3   TIME STEP   26
 
 SOLVING FOR HEAD 
                                                   Max.-Head-Change                         Max.-Flux-Residual
  Residual-Control   Outer-Iter.   Inner-Iter.     Column Row Layer    Maximum-Head-Change  Column Row Layer    Maximum-Flux-Residual          L2-NORM 
          0                 1           2             2    2     1       0.2838116139E-02       2    2    1         0.1481068002E+00      0.3677398061E+00
          0                 2           2             2    2     1      -0.2760716010E-03       2    2    1        -0.1481069955E-01      0.3675468798E-01
          0                 3           1             2    2     1       0.1879944954E-04       2    2    1         0.1036749217E-02      0.2571080409E-02

    ------------------------------------------------
       NWT REQUIRED            3 OUTER ITERATIONS 
       AND A TOTAL OF          5 INNER ITERATIONS.
    ------------------------------------------------

 NO OUTPUT CONTROL FOR STRESS PERIOD    3   TIME STEP   27
 
 SOLVING FOR HEAD 
                                                   Max.-Head-Change                         Max.-Flux-Residual
  Residual-Control   Outer-Iter.   Inner-Iter.     Column Row Layer    Maximum-Head-Change  Column Row Layer    Maximum-Flux-Residual          L2-NORM 
          0                 1           2             2    2     1       0.2821759410E-02       2    2    1         0.1472472332E+00      0.3656789512E+00
          0                 2           2             2    2     1      -0.2744805327E-03       2    2    1        -0.1472474252E-01      0.3655091365E-01
          0                 3           1             2    2     1       0.1869110407E-04       2    2    1         0.1030732238E-02      0.2557116783E-02

    ------------------------------------------------
       NWT REQUIRED            3 OUTER ITERATIONS 
       AND A TOTAL OF          5 INNER ITERATIONS.
    ------------------------------------------------

 NO OUTPUT CONTROL FOR STRESS PERIOD    3   TIME STEP   28
 
 SOLVING FOR HEAD 
                                                   Max.-Head-Change                         Max.-Flux-Residual
  Residual-Control   Outer-Iter.   Inner-Iter.     Column Row Layer    Maximum-Head-Change  Column Row Layer    Maximum-Flux-Residual          L2-NORM 
          0                 1           2             2    2     1       0.2805620490E-02       2    2    1         0.1463991537E+00      0.3637081530E+00
          0                 2           2             2    2     1      -0.2729106512E-03       2    2    1        -0.1463993426E-01      0.3635564024E-01
          0                 3           1             2    2     1       0.1858420112E-04       2    2    1         0.1024795671E-02      0.2543555090E-02

    ------------------------------------------------
       NWT REQUIRED            3 OUTER ITERATIONS 
       AND A TOTAL OF          5 INNER ITERATIONS.
    ------------------------------------------------

 NO OUTPUT CONTROL FOR STRESS PERIOD    3   TIME STEP   29
 
 SOLVING FOR HEAD 
                                                   Max.-Head-Change                         Max.-Flux-Residual
  Residual-Control   Outer-Iter.   Inner-Iter.     Column Row Layer    Maximum-Head-Change  Column Row Layer    Maximum-Flux-Residual          L2-NORM 
          0                 1           2             4   13     1       0.4709135787E-02       4   13    1         0.2696368487E+00      0.6974160910E+00
          0                 2           2             2    2     1      -0.4535413459E-03       4   13    1        -0.2668066273E-01      0.6881901713E-01
          0                 3           1             2    2     1       0.3088447577E-04       4   13    1         0.1840013495E-02      0.4731378929E-02

    ------------------------------------------------
       NWT REQUIRED            3 OUTER ITERATIONS 
       AND A TOTAL OF          5 INNER ITERATIONS.
    ------------------------------------------------

 NO OUTPUT CONTROL FOR STRESS PERIOD    3   TIME STEP   30



 STREAM LISTING     PERIOD      3   STEP       30

 LAYER ROW COL. STREAM  RCH.  FLOW INTO     FLOW TO   FLOW OUT OF   OVRLND.     DIRECT     STREAM       STREAM     STREAM     STREAM   STREAMBED  STREAMBED
                SEG.NO.  NO.  STRM. RCH.    AQUIFER    STRM. RCH.    RUNOFF     PRECIP       ET          HEAD       DEPTH      WIDTH   CONDCTNC.   GRADIENT

   1    1    1     1     1    2.7188E+01  2.5503E-01   2.6933E+01  0.000E+00  0.000E+00  0.000E+00  1.09426E+03  1.210E+00  1.346E+01  6.058E-02  1.403E+00
   1    2    2     1     2    2.6933E+01  3.9447E-01   2.6539E+01  0.000E+00  0.000E+00  0.000E+00  1.08926E+03  1.205E+00  1.340E+01  9.380E-02  1.402E+00
   1    3    3     1     3    2.6539E+01  3.3594E-01   2.6203E+01  0.000E+00  0.000E+00  0.000E+00  1.08362E+03  1.200E+00  1.333E+01  7.998E-02  1.400E+00
   1    3    4     1     4    2.6203E+01  3.0895E-01   2.5894E+01  0.000E+00  0.000E+00  0.000E+00  1.07860E+03  1.196E+00  1.327E+01  7.364E-02  1.399E+00
   1    4    5     2     1    2.3894E+01  3.2529E-01   2.3568E+01  0.000E+00  0.000E+00  0.000E+00  1.07310E+03  1.170E+00  1.200E+01  7.800E-02  1.390E+00
   1    5    6     2     2    2.3568E+01  2.4971E-01   2.3319E+01  0.000E+00  0.000E+00  0.000E+00  1.06767E+03  1.162E+00  1.200E+01  6.000E-02  1.387E+00
   1    6    6     2     3    2.3319E+01  2.4927E-01   2.3069E+01  0.000E+00  0.000E+00  0.000E+00  1.06295E+03  1.154E+00  1.200E+01  6.000E-02  1.385E+00
   1    7    6     2     4    2.3069E+01  2.4882E-01   2.2821E+01  0.000E+00  0.000E+00  0.000E+00  1.05822E+03  1.147E+00  1.200E+01  6.000E-02  1.382E+00
   1    8    6     2     5    2.2821E+01  2.4837E-01   2.2572E+01  0.000E+00  0.000E+00  0.000E+00  1.05350E+03  1.140E+00  1.200E+01  6.000E-02  1.380E+00
   1    3    5     3     1    2.0000E+00  2.8252E-01   1.7175E+00  0.000E+00  0.000E+00  0.000E+00  1.07555E+03  1.909E+00  9.636E+00  7.227E-02  1.955E+00
   1    3    6     3     2    1.7175E+00  2.4905E-01   1.4684E+00  0.000E+00  0.000E+00  0.000E+00  1.07264E+03  1.727E+00  8.909E+00  6.682E-02  1.864E+00
   1    3    7     3     3    1.4684E+00  1.9718E-01   1.2712E+00  0.000E+00  0.000E+00  0.000E+00  1.06987E+03  1.555E+00  8.218E+00  5.547E-02  1.777E+00
   1    4    8     3     4    1.2712E+00  2.2567E-01   1.0456E+00  0.000E+00  0.000E+00  0.000E+00  1.06682E+03  1.364E+00  7.455E+00  6.709E-02  1.682E+00
   1    5    8     3     5    1.0456E+00  1.5790E-01   8.8768E-01  0.000E+00  0.000E+00  0.000E+00  1.06362E+03  1.164E+00  6.655E+00  4.991E-02  1.582E+00
   1    6    8     3     6    8.8768E-01  5.5980E-02   8.3170E-01  0.000E+00  0.000E+00  0.000E+00  1.06158E+03  1.036E+00  6.145E+00  1.844E-02  1.518E+00
   1    5   10     4     1    1.0000E+01  9.0919E-02   9.9091E+00  0.000E+00  0.000E+00  0.000E+00  1.07836E+03  6.368E-01  1.000E+01  2.500E-02  1.212E+00
   1    5    9     4     2    9.9091E+00  1.8158E-01   9.7275E+00  0.000E+00  0.000E+00  0.000E+00  1.07154E+03  6.315E-01  1.000E+01  5.000E-02  1.211E+00
   1    6    8     4     3    9.7275E+00  1.2689E-01   9.6006E+00  0.000E+00  0.000E+00  0.000E+00  1.06381E+03  6.256E-01  1.000E+01  3.500E-02  1.209E+00
   1    6    8     5     1    1.0432E+01  2.2686E-01   1.0205E+01  0.000E+00  0.000E+00  0.000E+00  1.05868E+03  6.790E-01  1.542E+01  6.166E-02  1.226E+00
   1    7    7     5     2    1.0205E+01  2.7894E-01   9.9265E+00  0.000E+00  0.000E+00  0.000E+00  1.05417E+03  6.732E-01  1.519E+01  7.594E-02  1.224E+00
   1    8    7     5     3    9.9265E+00  1.9221E-01   9.7343E+00  0.000E+00  0.000E+00  0.000E+00  1.04992E+03  6.676E-01  1.497E+01  5.241E-02  1.223E+00
   1    8    6     5     4    9.7343E+00  1.3577E-01   9.5985E+00  0.000E+00  0.000E+00  0.000E+00  1.04691E+03  6.637E-01  1.482E+01  3.706E-02  1.221E+00
   1    9    6     6     1    3.2171E+01  2.6502E-01   3.1906E+01  0.000E+00  0.000E+00  0.000E+00  1.04414E+03  1.417E+00  1.200E+01  6.000E-02  1.472E+00
   1   10    7     6     2    3.1906E+01  2.6460E-01   3.1641E+01  0.000E+00  0.000E+00  0.000E+00  1.03959E+03  1.410E+00  1.200E+01  6.000E-02  1.470E+00
   1   11    7     6     3    3.1641E+01  2.6418E-01   3.1377E+01  0.000E+00  0.000E+00  0.000E+00  1.03504E+03  1.403E+00  1.200E+01  6.000E-02  1.468E+00
   1   12    7     6     4    3.1377E+01  2.6375E-01   3.1113E+01  0.000E+00  0.000E+00  0.000E+00  1.03049E+03  1.396E+00  1.200E+01  6.000E-02  1.465E+00
   1   13    7     6     5    3.1113E+01  1.0995E-02   3.1102E+01  0.000E+00  0.000E+00  0.000E+00  1.02730E+03  1.392E+00  1.200E+01  2.400E-02  1.527E-01
   1   14    9     7     1    1.5000E+02  1.3665E+00   1.4863E+02  0.000E+00  0.000E+00  0.000E+00  1.03987E+03  2.288E+00  5.529E+01  5.593E-01  8.144E-01
   1   13    8     7     2    1.4863E+02  1.9191E+00   1.4671E+02  0.000E+00  0.000E+00  0.000E+00  1.03478E+03  2.279E+00  5.526E+01  6.148E-01  1.041E+00
   1   13    7     7     3    1.4671E+02  1.5891E+00   1.4513E+02  0.000E+00  0.000E+00  0.000E+00  1.02969E+03  2.270E+00  5.521E+01  5.584E-01  9.486E-01
   1   13    6     8     1    1.7623E+02  1.0561E+00   1.7517E+02  0.000E+00  0.000E+00  0.000E+00  1.02486E+03  2.989E+00  4.334E+01  4.416E-01  7.971E-01
   1   13    5     8     2    1.7517E+02  2.7870E-01   1.7489E+02  0.000E+00  0.000E+00  0.000E+00  1.01861E+03  2.985E+00  4.328E+01  4.410E-01  2.106E-01
   1   13    4     8     3    1.7489E+02 -1.9966E+00   1.7689E+02  0.000E+00  0.000E+00  0.000E+00  1.01237E+03  2.990E+00  4.336E+01  4.418E+00 -1.506E-01
   1   13    3     8     4    1.7689E+02 -3.3281E+00   1.8022E+02  0.000E+00  0.000E+00  0.000E+00  1.00613E+03  3.007E+00  4.360E+01  4.443E+00 -2.497E-01
   1   13    2     8     5    1.8022E+02 -2.3039E+00   1.8252E+02  0.000E+00  0.000E+00  0.000E+00  9.99900E+02  3.025E+00  4.386E+01  4.469E+00 -1.718E-01
   1   13    1     8     6    1.8252E+02 -1.8174E+00   1.8434E+02  0.000E+00  0.000E+00  0.000E+00  9.94913E+02  3.038E+00  4.405E+01  2.693E+00 -2.250E-01
   1    8    6     9     1    0.0000E+00  0.0000E+00   0.0000E+00  0.000E+00  0.000E+00  0.000E+00  1.07875E+03  0.000E+00  4.000E+00  0.000E+00  1.000E+00
   1    8    5     9     2    0.0000E+00  0.0000E+00   0.0000E+00  0.000E+00  0.000E+00  0.000E+00  1.07825E+03  0.000E+00  4.000E+00  0.000E+00  1.000E+00





UNSATURATED ZONE PACKAGE VOLUMETRIC BUDGET FOR  TIME STEP    30 STRESS PERIOD    3
  ------------------------------------------------------------------------------



     CUMULATIVE VOLUMES      L**3       RATES FOR THIS TIME STEP      L**3/T
     ------------------                 ------------------------

           IN:                                      IN:
           ---                                      ---
        INFILTRATION =    23256673.1162          INFILTRATION =           4.4075

          OUT:                                     OUT:
          ----                                     ----
              UZF ET =     3813499.7783                UZF ET =           0.7250
        UZF RECHARGE =       73224.0000          UZF RECHARGE =       0.0000E+00

            IN - OUT =    19369949.3379              IN - OUT =           3.6825

          STORAGE:                                 STORAGE:
          --------                                 --------
      STORAGE CHANGE =    19369949.2161        STORAGE CHANGE =           3.6825

 PERCENT DISCREPANCY IS DIFFERENCE BETWEEN IN-OUT MINUS CHANGE IN STORAGE
 DIVIDED BY THE AVERAGE OF IN AND OUT TIMES 100

 PERCENT DISCREPANCY =           0.00     PERCENT DISCREPANCY =           0.00






1
  VOLUMETRIC BUDGET FOR AGRICULTURAL FIELDS AT  END OF TIME STEP   30, STRESS PERIOD   3
  ------------------------------------------------------------------------------

     CUMULATIVE VOLUMES      L**3       RATES FOR THIS TIME STEP      L**3/T
     ------------------                 ------------------------

           IN:                                      IN:
           ---                                      ---
               AG WELLS  =           0.0000                 AG WELLS  =           0.0000
      DIVERSION SEGMENTS =           0.0000        DIVERSION SEGMENTS =           0.0000
           GW IRRIGATION =           0.0000             GW IRRIGATION =           0.0000
           SW IRRIGATION =           0.0000             SW IRRIGATION =           0.0000
        SYSTEM LOSSES GW =           0.0000          SYSTEM LOSSES GW =           0.0000
        SYSTEM LOSSES SW =           0.0000          SYSTEM LOSSES SW =           0.0000

                TOTAL IN =           0.0000                  TOTAL IN =           0.0000

          OUT:                                     OUT:
          ----                                     ----
               AG WELLS  =           0.0000                 AG WELLS  =           0.0000
      DIVERSION SEGMENTS =           0.0000        DIVERSION SEGMENTS =           0.0000
           GW IRRIGATION =           0.0000             GW IRRIGATION =           0.0000
           SW IRRIGATION =           0.0000             SW IRRIGATION =           0.0000
        SYSTEM LOSSES GW =           0.0000          SYSTEM LOSSES GW =           0.0000
        SYSTEM LOSSES SW =           0.0000          SYSTEM LOSSES SW =           0.0000

               TOTAL OUT =           0.0000                 TOTAL OUT =           0.0000

                IN - OUT =           0.0000                  IN - OUT =           0.0000

     PERCENT DISCREPANCY =           0.00         PERCENT DISCREPANCY =           0.00



1
  VOLUMETRIC BUDGET FOR ENTIRE MODEL AT END OF TIME STEP   30, STRESS PERIOD   3
  ------------------------------------------------------------------------------

     CUMULATIVE VOLUMES      L**3       RATES FOR THIS TIME STEP      L**3/T
     ------------------                 ------------------------

           IN:                                      IN:
           ---                                      ---
             STORAGE     =     3101464.7500               STORAGE     =           0.4931
       CONSTANT HEAD     =           0.0000         CONSTANT HEAD     =           0.0000
     HEAD DEP BOUNDS     =     1538702.5000       HEAD DEP BOUNDS     =           0.2878
      STREAM LEAKAGE     =    60993760.0000        STREAM LEAKAGE     =          12.2952
        UZF RECHARGE     =       73223.9531          UZF RECHARGE     =           0.0000
               GW ET     =           0.0000                 GW ET     =           0.0000
     SURFACE LEAKAGE     =           0.0000       SURFACE LEAKAGE     =           0.0000
           AG WELLS      =           0.0000             AG WELLS      =           0.0000

                TOTAL IN =    65707152.0000                  TOTAL IN =          13.0762

          OUT:                                     OUT:
          ----                                     ----
             STORAGE     =     9831363.0000               STORAGE     =           3.3427
       CONSTANT HEAD     =           0.0000         CONSTANT HEAD     =           0.0000
     HEAD DEP BOUNDS     =     1536322.6250       HEAD DEP BOUNDS     =           0.2883
      STREAM LEAKAGE     =    54341364.0000        STREAM LEAKAGE     =           9.4460
        UZF RECHARGE     =           0.0000          UZF RECHARGE     =           0.0000
               GW ET     =           0.0000                 GW ET     =           0.0000
     SURFACE LEAKAGE     =           0.0000       SURFACE LEAKAGE     =           0.0000
           AG WELLS      =           0.0000             AG WELLS      =           0.0000

               TOTAL OUT =    65709048.0000                 TOTAL OUT =          13.0770

                IN - OUT =       -1896.0000                  IN - OUT =      -8.0872E-04

     PERCENT DISCREPANCY =          -0.00         PERCENT DISCREPANCY =          -0.01






         TIME SUMMARY AT END OF TIME STEP   30 IN STRESS PERIOD    3
                    SECONDS     MINUTES      HOURS       DAYS        YEARS
                    -----------------------------------------------------------
   TIME STEP LENGTH  87667.      1461.1      24.352      1.0147     2.77799E-03
 STRESS PERIOD TIME 2.63000E+06  43833.      730.56      30.440     8.33397E-02
         TOTAL TIME 5.34640E+06  89107.      1485.1      61.880     0.16942    
1
1
                            STRESS PERIOD NO.    4, LENGTH =   2630000.    
                            -----------------------------------------------

                              NUMBER OF TIME STEPS =    30

                               MULTIPLIER FOR DELT =     1.000

                            INITIAL TIME STEP SIZE =   87666.66    

 REUSING NON-PARAMETER GHB CELLS FROM LAST STRESS PERIOD

      2 GHB CELLS

 REUSING STREAM SEGMENT DATA FROM LAST STRESS PERIOD



            AREAL INFILTRATION RATE
 READING ON UNIT   19 WITH FORMAT: (10F4.0)            

            1           2           3           4           5           6           7           8           9          10
 ........................................................................................................................
   1   1.2000E-09   0.000       0.000       0.000       0.000       0.000       0.000       0.000       0.000       0.000    
   2   2.1000E-09  2.0000E-09  8.0000E-10  8.5000E-09   0.000       0.000       0.000       0.000       0.000       0.000    
   3   5.0000E-10  1.1000E-09  8.8000E-09  5.5000E-09   0.000       0.000       0.000       0.000       0.000       0.000    
   4   8.5000E-09  1.1000E-09  1.1000E-09  1.1000E-09  2.0000E-09   0.000       0.000       0.000       0.000       0.000    
   5   8.5000E-09  1.1000E-09  1.1000E-09  1.1000E-09  1.1000E-09   0.000       0.000       0.000       0.000       0.000    
   6   8.5000E-09  5.2000E-09  2.1000E-09  1.1000E-09  1.5000E-09   0.000       0.000       0.000       0.000       0.000    
   7   8.5000E-09  5.2000E-09  2.1000E-09  1.2000E-09  2.0000E-09   0.000       0.000       0.000       0.000       0.000    
   8   5.0000E-10  5.2000E-09  2.1000E-09  1.2000E-09  5.0000E-09   0.000       0.000       0.000       0.000       0.000    
   9   5.0000E-10  5.2000E-09  2.1000E-09  1.2000E-09  5.0000E-09   0.000       0.000       0.000       0.000       0.000    
  10   5.0000E-10  5.2000E-09  2.1000E-09  1.2000E-09  5.8000E-09   0.000       0.000       0.000       0.000       0.000    
  11   1.0000E-10  1.1000E-09  1.1000E-09  1.2000E-09  5.0000E-09   0.000       0.000       0.000       0.000       0.000    
  12   1.1000E-09  1.1000E-09  1.1000E-09  1.1000E-09  2.0000E-09   0.000       0.000       0.000       0.000       0.000    
  13   1.1000E-09  2.2000E-09  2.2000E-09  2.1000E-09  1.0000E-09   0.000       0.000       0.000       0.000       0.000    
  14   2.0000E-10  5.5000E-09  5.5000E-09  5.2000E-09  1.0000E-09   0.000       0.000       0.000       0.000       0.000    
  15    0.000      8.8000E-09  8.8000E-09   0.000       0.000       0.000       0.000       0.000       0.000       0.000    

                  ET RATE =  5.000000E-10

 USING ET EXTINCTION DEPTH FROM PREVIOUS STRESS PERIOD. CURRENT PERIOD IS:       4

 USING EXTINCTION WATER CONTENT FROM PREVIOUS STRESS PERIOD. CURRENT PERIOD IS:       4

 USING AIR ENTRY PRESSURE FROM PREVIOUS STRESS PERIOD. CURRENT PERIOD IS:       4

 USING ROOT PRESSURE HEAD FROM PREVIOUS STRESS PERIOD. CURRENT PERIOD IS:       4

 USING ROOT ACTIVITY FROM PREVIOUS STRESS PERIOD. CURRENT PERIOD IS:       4

 PROCESSING AG STRESS PERIOD DATA

 READING AG STRESS PERIOD DATA

 READING IRRIGATION SEGMENT

 READING IRRIGATION WELL

 READING SUPPLEMENTAL WELL

 END PROCESSING AG STRESS PERIOD DATA OPTIONS
 
 SOLVING FOR HEAD 
                                                   Max.-Head-Change                         Max.-Flux-Residual
  Residual-Control   Outer-Iter.   Inner-Iter.     Column Row Layer    Maximum-Head-Change  Column Row Layer    Maximum-Flux-Residual          L2-NORM 
          0                 1           2             4   13     1       0.4940256429E-02       4   13    1         0.2828336750E+00      0.7295622726E+00
          0                 2           2             4   13     1      -0.4754237852E-03       4   13    1        -0.2798478083E-01      0.7195857241E-01
          0                 3           1             2    2     1       0.3214211801E-04       4   13    1         0.1929798420E-02      0.4944689143E-02

    ------------------------------------------------
       NWT REQUIRED            3 OUTER ITERATIONS 
       AND A TOTAL OF          5 INNER ITERATIONS.
    ------------------------------------------------

 NO OUTPUT CONTROL FOR STRESS PERIOD    4   TIME STEP    1
 
 SOLVING FOR HEAD 
                                                   Max.-Head-Change                         Max.-Flux-Residual
  Residual-Control   Outer-Iter.   Inner-Iter.     Column Row Layer    Maximum-Head-Change  Column Row Layer    Maximum-Flux-Residual          L2-NORM 
          0                 1           2             2    2     1       0.4822158127E-02       4   13    1         0.2567875754E+00      0.7019733289E+00
          0                 2           2             2    2     1      -0.4690654015E-03       4   13    1        -0.2540533821E-01      0.6931298440E-01
          0                 3           1             2    2     1       0.3194160581E-04       2    2    1         0.1762315277E-02      0.4770416523E-02

    ------------------------------------------------
       NWT REQUIRED            3 OUTER ITERATIONS 
       AND A TOTAL OF          5 INNER ITERATIONS.
    ------------------------------------------------

 NO OUTPUT CONTROL FOR STRESS PERIOD    4   TIME STEP    2
 
 SOLVING FOR HEAD 
                                                   Max.-Head-Change                         Max.-Flux-Residual
  Residual-Control   Outer-Iter.   Inner-Iter.     Column Row Layer    Maximum-Head-Change  Column Row Layer    Maximum-Flux-Residual          L2-NORM 
          0                 1           2             2    2     1       0.4792218813E-02       2    2    1         0.2501847493E+00      0.6774938843E+00
          0                 2           2             2    2     1      -0.4661531065E-03       2    2    1        -0.2501853423E-01      0.6696553959E-01
          0                 3           1             2    2     1       0.3174328970E-04       2    2    1         0.1751297593E-02      0.4614768228E-02

    ------------------------------------------------
       NWT REQUIRED            3 OUTER ITERATIONS 
       AND A TOTAL OF          5 INNER ITERATIONS.
    ------------------------------------------------

 NO OUTPUT CONTROL FOR STRESS PERIOD    4   TIME STEP    3
 
 SOLVING FOR HEAD 
                                                   Max.-Head-Change                         Max.-Flux-Residual
  Residual-Control   Outer-Iter.   Inner-Iter.     Column Row Layer    Maximum-Head-Change  Column Row Layer    Maximum-Flux-Residual          L2-NORM 
          0                 1           2             2    2     1       0.4762605471E-02       2    2    1         0.2486279909E+00      0.6557713487E+00
          0                 2           2             2    2     1      -0.4632725198E-03       2    2    1        -0.2486285733E-01      0.6488407506E-01
          0                 3           1             2    2     1       0.3154713253E-04       2    2    1         0.1740400208E-02      0.4478185350E-02

    ------------------------------------------------
       NWT REQUIRED            3 OUTER ITERATIONS 
       AND A TOTAL OF          5 INNER ITERATIONS.
    ------------------------------------------------

 NO OUTPUT CONTROL FOR STRESS PERIOD    4   TIME STEP    4
 
 SOLVING FOR HEAD 
                                                   Max.-Head-Change                         Max.-Flux-Residual
  Residual-Control   Outer-Iter.   Inner-Iter.     Column Row Layer    Maximum-Head-Change  Column Row Layer    Maximum-Flux-Residual          L2-NORM 
          0                 1           2             2    2     1       0.4733482239E-02       2    2    1         0.2470970108E+00      0.6364935214E+00
          0                 2           2             2    2     1      -0.4604396079E-03       2    2    1        -0.2470975830E-01      0.6303681786E-01
          0                 3           1             2    2     1       0.3135422180E-04       2    2    1         0.1729683279E-02      0.4356164970E-02

    ------------------------------------------------
       NWT REQUIRED            3 OUTER ITERATIONS 
       AND A TOTAL OF          5 INNER ITERATIONS.
    ------------------------------------------------

 NO OUTPUT CONTROL FOR STRESS PERIOD    4   TIME STEP    5
 
 SOLVING FOR HEAD 
                                                   Max.-Head-Change                         Max.-Flux-Residual
  Residual-Control   Outer-Iter.   Inner-Iter.     Column Row Layer    Maximum-Head-Change  Column Row Layer    Maximum-Flux-Residual          L2-NORM 
          0                 1           2             2    2     1       0.4704672246E-02       2    2    1         0.2455825651E+00      0.6193636568E+00
          0                 2           2             2    2     1      -0.4576371664E-03       2    2    1        -0.2455831273E-01      0.6139578013E-01
          0                 3           1             2    2     1       0.3116338622E-04       2    2    1         0.1719082110E-02      0.4247375233E-02

    ------------------------------------------------
       NWT REQUIRED            3 OUTER ITERATIONS 
       AND A TOTAL OF          5 INNER ITERATIONS.
    ------------------------------------------------

 NO OUTPUT CONTROL FOR STRESS PERIOD    4   TIME STEP    6
 
 SOLVING FOR HEAD 
                                                   Max.-Head-Change                         Max.-Flux-Residual
  Residual-Control   Outer-Iter.   Inner-Iter.     Column Row Layer    Maximum-Head-Change  Column Row Layer    Maximum-Flux-Residual          L2-NORM 
          0                 1           2             2    2     1       0.4676255243E-02       2    2    1         0.2440887991E+00      0.6041381169E+00
          0                 2           2             2    2     1      -0.4548729520E-03       2    2    1        -0.2440893516E-01      0.5993800517E-01
          0                 3           1             2    2     1       0.3097515358E-04       2    2    1         0.1708625675E-02      0.4151745983E-02

    ------------------------------------------------
       NWT REQUIRED            3 OUTER ITERATIONS 
       AND A TOTAL OF          5 INNER ITERATIONS.
    ------------------------------------------------

 NO OUTPUT CONTROL FOR STRESS PERIOD    4   TIME STEP    7
 
 SOLVING FOR HEAD 
                                                   Max.-Head-Change                         Max.-Flux-Residual
  Residual-Control   Outer-Iter.   Inner-Iter.     Column Row Layer    Maximum-Head-Change  Column Row Layer    Maximum-Flux-Residual          L2-NORM 
          0                 1           2             2    2     1       0.4648225140E-02       2    2    1         0.2426154093E+00      0.5905842514E+00
          0                 2           2             2    2     1      -0.4521463726E-03       2    2    1        -0.2426159521E-01      0.5863995959E-01
          0                 3           1             2    2     1       0.3078948363E-04       2    2    1         0.1698311876E-02      0.4066528412E-02

    ------------------------------------------------
       NWT REQUIRED            3 OUTER ITERATIONS 
       AND A TOTAL OF          5 INNER ITERATIONS.
    ------------------------------------------------

 NO OUTPUT CONTROL FOR STRESS PERIOD    4   TIME STEP    8
 
 SOLVING FOR HEAD 
                                                   Max.-Head-Change                         Max.-Flux-Residual
  Residual-Control   Outer-Iter.   Inner-Iter.     Column Row Layer    Maximum-Head-Change  Column Row Layer    Maximum-Flux-Residual          L2-NORM 
          0                 1           2             2    2     1       0.4620490959E-02       2    2    1         0.2411576405E+00      0.5784937476E+00
          0                 2           2             2    2     1      -0.4494485790E-03       2    2    1        -0.2411581739E-01      0.5748116049E-01
          0                 3           1             2    2     1       0.3060577453E-04       2    2    1         0.1688107457E-02      0.3990064608E-02

    ------------------------------------------------
       NWT REQUIRED            3 OUTER ITERATIONS 
       AND A TOTAL OF          5 INNER ITERATIONS.
    ------------------------------------------------

 NO OUTPUT CONTROL FOR STRESS PERIOD    4   TIME STEP    9
 
 SOLVING FOR HEAD 
                                                   Max.-Head-Change                         Max.-Flux-Residual
  Residual-Control   Outer-Iter.   Inner-Iter.     Column Row Layer    Maximum-Head-Change  Column Row Layer    Maximum-Flux-Residual          L2-NORM 
          0                 1           2             2    2     1       0.4593217664E-02       2    2    1         0.2397240935E+00      0.5676885115E+00
          0                 2           2             2    2     1      -0.4467956171E-03       2    2    1        -0.2397246178E-01      0.5644437923E-01
          0                 3           1             2    2     1       0.3042511732E-04       2    2    1         0.1678072550E-02      0.3921225509E-02

    ------------------------------------------------
       NWT REQUIRED            3 OUTER ITERATIONS 
       AND A TOTAL OF          5 INNER ITERATIONS.
    ------------------------------------------------

 NO OUTPUT CONTROL FOR STRESS PERIOD    4   TIME STEP   10
 
 SOLVING FOR HEAD 
                                                   Max.-Head-Change                         Max.-Flux-Residual
  Residual-Control   Outer-Iter.   Inner-Iter.     Column Row Layer    Maximum-Head-Change  Column Row Layer    Maximum-Flux-Residual          L2-NORM 
          0                 1           2             2    2     1       0.4566229252E-02       2    2    1         0.2383055642E+00      0.5580162847E+00
          0                 2           2             2    2     1      -0.4441703675E-03       2    2    1        -0.2383060796E-01      0.5551692614E-01
          0                 3           1             2    2     1       0.3024634806E-04       2    2    1         0.1668142804E-02      0.3860277890E-02

    ------------------------------------------------
       NWT REQUIRED            3 OUTER ITERATIONS 
       AND A TOTAL OF          5 INNER ITERATIONS.
    ------------------------------------------------

 NO OUTPUT CONTROL FOR STRESS PERIOD    4   TIME STEP   11
 
 SOLVING FOR HEAD 
                                                   Max.-Head-Change                         Max.-Flux-Residual
  Residual-Control   Outer-Iter.   Inner-Iter.     Column Row Layer    Maximum-Head-Change  Column Row Layer    Maximum-Flux-Residual          L2-NORM 
          0                 1           2             2    2     1       0.4539604892E-02       2    2    1         0.2369062451E+00      0.5493253848E+00
          0                 2           2             2    2     1      -0.4415805301E-03       2    2    1        -0.2369067519E-01      0.5468227958E-01
          0                 3           1             2    2     1       0.3006999002E-04       2    2    1         0.1658347512E-02      0.3805227581E-02

    ------------------------------------------------
       NWT REQUIRED            3 OUTER ITERATIONS 
       AND A TOTAL OF          5 INNER ITERATIONS.
    ------------------------------------------------

 NO OUTPUT CONTROL FOR STRESS PERIOD    4   TIME STEP   12
 
 SOLVING FOR HEAD 
                                                   Max.-Head-Change                         Max.-Flux-Residual
  Residual-Control   Outer-Iter.   Inner-Iter.     Column Row Layer    Maximum-Head-Change  Column Row Layer    Maximum-Flux-Residual          L2-NORM 
          0                 1           2             2    2     1       0.4513339655E-02       2    2    1         0.2355258017E+00      0.5415014739E+00
          0                 2           2             2    2     1      -0.4390256255E-03       2    2    1        -0.2355262999E-01      0.5393066245E-01
          0                 3           1             2    2     1       0.2989601008E-04       2    2    1         0.1648684331E-02      0.3755364503E-02

    ------------------------------------------------
       NWT REQUIRED            3 OUTER ITERATIONS 
       AND A TOTAL OF          5 INNER ITERATIONS.
    ------------------------------------------------

 NO OUTPUT CONTROL FOR STRESS PERIOD    4   TIME STEP   13
 
 SOLVING FOR HEAD 
                                                   Max.-Head-Change                         Max.-Flux-Residual
  Residual-Control   Outer-Iter.   Inner-Iter.     Column Row Layer    Maximum-Head-Change  Column Row Layer    Maximum-Flux-Residual          L2-NORM 
          0                 1           2             2    2     1       0.4487427999E-02       2    2    1         0.2341639785E+00      0.5344404299E+00
          0                 2           2             2    2     1      -0.4365051153E-03       2    2    1        -0.2341644683E-01      0.5325064171E-01
          0                 3           1             2    2     1       0.2972437273E-04       2    2    1         0.1639151517E-02      0.3709722433E-02

    ------------------------------------------------
       NWT REQUIRED            3 OUTER ITERATIONS 
       AND A TOTAL OF          5 INNER ITERATIONS.
    ------------------------------------------------

 NO OUTPUT CONTROL FOR STRESS PERIOD    4   TIME STEP   14
 
 SOLVING FOR HEAD 
                                                   Max.-Head-Change                         Max.-Flux-Residual
  Residual-Control   Outer-Iter.   Inner-Iter.     Column Row Layer    Maximum-Head-Change  Column Row Layer    Maximum-Flux-Residual          L2-NORM 
          0                 1           2             2    2     1       0.4461780208E-02       2    2    1         0.2328160480E+00      0.5280414352E+00
          0                 2           2             2    2     1      -0.4340102724E-03       2    2    1        -0.2328165297E-01      0.5263399317E-01
          0                 3           1             2    2     1       0.2955448369E-04       2    2    1         0.1629715952E-02      0.3668692096E-02

    ------------------------------------------------
       NWT REQUIRED            3 OUTER ITERATIONS 
       AND A TOTAL OF          5 INNER ITERATIONS.
    ------------------------------------------------

 NO OUTPUT CONTROL FOR STRESS PERIOD    4   TIME STEP   15
 
 SOLVING FOR HEAD 
                                                   Max.-Head-Change                         Max.-Flux-Residual
  Residual-Control   Outer-Iter.   Inner-Iter.     Column Row Layer    Maximum-Head-Change  Column Row Layer    Maximum-Flux-Residual          L2-NORM 
          0                 1           2             2    2     1       0.4436475808E-02       2    2    1         0.2314862385E+00      0.5222149451E+00
          0                 2           2             2    2     1      -0.4315488322E-03       2    2    1        -0.2314867122E-01      0.5207189517E-01
          0                 3           1             2    2     1       0.2938686860E-04       2    2    1         0.1620407231E-02      0.3631218894E-02

    ------------------------------------------------
       NWT REQUIRED            3 OUTER ITERATIONS 
       AND A TOTAL OF          5 INNER ITERATIONS.
    ------------------------------------------------

 NO OUTPUT CONTROL FOR STRESS PERIOD    4   TIME STEP   16
 
 SOLVING FOR HEAD 
                                                   Max.-Head-Change                         Max.-Flux-Residual
  Residual-Control   Outer-Iter.   Inner-Iter.     Column Row Layer    Maximum-Head-Change  Column Row Layer    Maximum-Flux-Residual          L2-NORM 
          0                 1           2             2    2     1       0.4411510217E-02       2    2    1         0.2301742335E+00      0.5168938498E+00
          0                 2           2             2    2     1      -0.4291203492E-03       2    2    1        -0.2301746994E-01      0.5155769981E-01
          0                 3           1             2    2     1       0.2922149812E-04       2    2    1         0.1611223157E-02      0.3596963481E-02

    ------------------------------------------------
       NWT REQUIRED            3 OUTER ITERATIONS 
       AND A TOTAL OF          5 INNER ITERATIONS.
    ------------------------------------------------

 NO OUTPUT CONTROL FOR STRESS PERIOD    4   TIME STEP   17
 
 SOLVING FOR HEAD 
                                                   Max.-Head-Change                         Max.-Flux-Residual
  Residual-Control   Outer-Iter.   Inner-Iter.     Column Row Layer    Maximum-Head-Change  Column Row Layer    Maximum-Flux-Residual          L2-NORM 
          0                 1           2             2    2     1       0.4386877882E-02       2    2    1         0.2288797954E+00      0.5120298929E+00
          0                 2           2             2    2     1      -0.4267242835E-03       2    2    1        -0.2288802537E-01      0.5108666455E-01
          0                 3           1             2    2     1       0.2905833509E-04       2    2    1         0.1602162048E-02      0.3565003653E-02

    ------------------------------------------------
       NWT REQUIRED            3 OUTER ITERATIONS 
       AND A TOTAL OF          5 INNER ITERATIONS.
    ------------------------------------------------

 NO OUTPUT CONTROL FOR STRESS PERIOD    4   TIME STEP   18
 
 SOLVING FOR HEAD 
                                                   Max.-Head-Change                         Max.-Flux-Residual
  Residual-Control   Outer-Iter.   Inner-Iter.     Column Row Layer    Maximum-Head-Change  Column Row Layer    Maximum-Flux-Residual          L2-NORM 
          0                 1           2             2    2     1       0.4362574026E-02       2    2    1         0.2276026363E+00      0.5075547223E+00
          0                 2           2             2    2     1      -0.4243601697E-03       2    2    1        -0.2276030872E-01      0.5065321812E-01
          0                 3           1             2    2     1       0.2889734804E-04       2    2    1         0.1593221883E-02      0.3536189499E-02

    ------------------------------------------------
       NWT REQUIRED            3 OUTER ITERATIONS 
       AND A TOTAL OF          5 INNER ITERATIONS.
    ------------------------------------------------

 NO OUTPUT CONTROL FOR STRESS PERIOD    4   TIME STEP   19
 
 SOLVING FOR HEAD 
                                                   Max.-Head-Change                         Max.-Flux-Residual
  Residual-Control   Outer-Iter.   Inner-Iter.     Column Row Layer    Maximum-Head-Change  Column Row Layer    Maximum-Flux-Residual          L2-NORM 
          0                 1           2             2    2     1       0.4338508634E-02       2    2    1         0.2263380676E+00      0.5034376619E+00
          0                 2           2             2    2     1      -0.4220192519E-03       2    2    1        -0.2263385111E-01      0.5025345755E-01
          0                 3           1             2    2     1       0.2873794007E-04       2    2    1         0.1584369836E-02      0.3509546944E-02

    ------------------------------------------------
       NWT REQUIRED            3 OUTER ITERATIONS 
       AND A TOTAL OF          5 INNER ITERATIONS.
    ------------------------------------------------

 NO OUTPUT CONTROL FOR STRESS PERIOD    4   TIME STEP   20
 
 SOLVING FOR HEAD 
                                                   Max.-Head-Change                         Max.-Flux-Residual
  Residual-Control   Outer-Iter.   Inner-Iter.     Column Row Layer    Maximum-Head-Change  Column Row Layer    Maximum-Flux-Residual          L2-NORM 
          0                 1           2             2    2     1       0.4314847351E-02       2    2    1         0.2250947447E+00      0.4996128013E+00
          0                 2           2             2    2     1      -0.4197176439E-03       2    2    1        -0.2250951812E-01      0.4988139387E-01
          0                 3           1             2    2     1       0.2858120912E-04       2    2    1         0.1575666532E-02      0.3484255654E-02

    ------------------------------------------------
       NWT REQUIRED            3 OUTER ITERATIONS 
       AND A TOTAL OF          5 INNER ITERATIONS.
    ------------------------------------------------

 NO OUTPUT CONTROL FOR STRESS PERIOD    4   TIME STEP   21
 
 SOLVING FOR HEAD 
                                                   Max.-Head-Change                         Max.-Flux-Residual
  Residual-Control   Outer-Iter.   Inner-Iter.     Column Row Layer    Maximum-Head-Change  Column Row Layer    Maximum-Flux-Residual          L2-NORM 
          0                 1           2             2    2     1       0.4291414664E-02       2    2    1         0.2238634925E+00      0.4960630479E+00
          0                 2           2             2    2     1      -0.4174382721E-03       2    2    1        -0.2238639221E-01      0.4953554844E-01
          0                 3           1             2    2     1       0.2842599287E-04       2    2    1         0.1567047735E-02      0.3460723927E-02

    ------------------------------------------------
       NWT REQUIRED            3 OUTER ITERATIONS 
       AND A TOTAL OF          5 INNER ITERATIONS.
    ------------------------------------------------

 NO OUTPUT CONTROL FOR STRESS PERIOD    4   TIME STEP   22
 
 SOLVING FOR HEAD 
                                                   Max.-Head-Change                         Max.-Flux-Residual
  Residual-Control   Outer-Iter.   Inner-Iter.     Column Row Layer    Maximum-Head-Change  Column Row Layer    Maximum-Flux-Residual          L2-NORM 
          0                 1           2             2    2     1       0.4268292141E-02       2    2    1         0.2226485337E+00      0.4927559452E+00
          0                 2           2             2    2     1      -0.4151890704E-03       2    2    1        -0.2226489564E-01      0.4921384520E-01
          0                 3           1             2    2     1       0.2827283023E-04       2    2    1         0.1558542960E-02      0.3439318153E-02

    ------------------------------------------------
       NWT REQUIRED            3 OUTER ITERATIONS 
       AND A TOTAL OF          5 INNER ITERATIONS.
    ------------------------------------------------

 NO OUTPUT CONTROL FOR STRESS PERIOD    4   TIME STEP   23
 
 SOLVING FOR HEAD 
                                                   Max.-Head-Change                         Max.-Flux-Residual
  Residual-Control   Outer-Iter.   Inner-Iter.     Column Row Layer    Maximum-Head-Change  Column Row Layer    Maximum-Flux-Residual          L2-NORM 
          0                 1           2             2    2     1       0.4245474688E-02       2    2    1         0.2214496566E+00      0.4896634547E+00
          0                 2           2             2    2     1      -0.4129695445E-03       2    2    1        -0.2214500726E-01      0.4890987911E-01
          0                 3           1             2    2     1       0.2812168902E-04       2    2    1         0.1550150785E-02      0.3418715790E-02

    ------------------------------------------------
       NWT REQUIRED            3 OUTER ITERATIONS 
       AND A TOTAL OF          5 INNER ITERATIONS.
    ------------------------------------------------

 NO OUTPUT CONTROL FOR STRESS PERIOD    4   TIME STEP   24
 
 SOLVING FOR HEAD 
                                                   Max.-Head-Change                         Max.-Flux-Residual
  Residual-Control   Outer-Iter.   Inner-Iter.     Column Row Layer    Maximum-Head-Change  Column Row Layer    Maximum-Flux-Residual          L2-NORM 
          0                 1           2             2    2     1       0.4222873025E-02       2    2    1         0.2202621556E+00      0.4867597822E+00
          0                 2           2             2    2     1      -0.4107710089E-03       2    2    1        -0.2202625650E-01      0.4862641422E-01
          0                 3           1             2    2     1       0.2797197709E-04       2    2    1         0.1541838243E-02      0.3399615835E-02

    ------------------------------------------------
       NWT REQUIRED            3 OUTER ITERATIONS 
       AND A TOTAL OF          5 INNER ITERATIONS.
    ------------------------------------------------

 NO OUTPUT CONTROL FOR STRESS PERIOD    4   TIME STEP   25
 
 SOLVING FOR HEAD 
                                                   Max.-Head-Change                         Max.-Flux-Residual
  Residual-Control   Outer-Iter.   Inner-Iter.     Column Row Layer    Maximum-Head-Change  Column Row Layer    Maximum-Flux-Residual          L2-NORM 
          0                 1           2             2    2     1       0.4200652857E-02       2    2    1         0.2190947260E+00      0.4840163545E+00
          0                 2           2             2    2     1      -0.4086095830E-03       2    2    1        -0.2190951291E-01      0.4835769767E-01
          0                 3           1             2    2     1       0.2782479187E-04       2    2    1         0.1533666189E-02      0.3380922463E-02

    ------------------------------------------------
       NWT REQUIRED            3 OUTER ITERATIONS 
       AND A TOTAL OF          5 INNER ITERATIONS.
    ------------------------------------------------

 NO OUTPUT CONTROL FOR STRESS PERIOD    4   TIME STEP   26
 
 SOLVING FOR HEAD 
                                                   Max.-Head-Change                         Max.-Flux-Residual
  Residual-Control   Outer-Iter.   Inner-Iter.     Column Row Layer    Maximum-Head-Change  Column Row Layer    Maximum-Flux-Residual          L2-NORM 
          0                 1           2             2    2     1       0.4178639351E-02       2    2    1         0.2179381933E+00      0.4814396288E+00
          0                 2           2             2    2     1      -0.4064682595E-03       2    2    1        -0.2179385901E-01      0.4810554201E-01
          0                 3           1             2    2     1       0.2767897558E-04       2    2    1         0.1525570402E-02      0.3363866503E-02

    ------------------------------------------------
       NWT REQUIRED            3 OUTER ITERATIONS 
       AND A TOTAL OF          5 INNER ITERATIONS.
    ------------------------------------------------

 NO OUTPUT CONTROL FOR STRESS PERIOD    4   TIME STEP   27
 
 SOLVING FOR HEAD 
                                                   Max.-Head-Change                         Max.-Flux-Residual
  Residual-Control   Outer-Iter.   Inner-Iter.     Column Row Layer    Maximum-Head-Change  Column Row Layer    Maximum-Flux-Residual          L2-NORM 
          0                 1           2             2    2     1       0.4156913743E-02       2    2    1         0.2167968174E+00      0.4789933937E+00
          0                 2           2             2    2     1      -0.4043549410E-03       2    2    1        -0.2167972081E-01      0.4786449974E-01
          0                 3           1             2    2     1       0.2753506663E-04       2    2    1         0.1517580741E-02      0.3347386713E-02

    ------------------------------------------------
       NWT REQUIRED            3 OUTER ITERATIONS 
       AND A TOTAL OF          5 INNER ITERATIONS.
    ------------------------------------------------

 NO OUTPUT CONTROL FOR STRESS PERIOD    4   TIME STEP   28
 
 SOLVING FOR HEAD 
                                                   Max.-Head-Change                         Max.-Flux-Residual
  Residual-Control   Outer-Iter.   Inner-Iter.     Column Row Layer    Maximum-Head-Change  Column Row Layer    Maximum-Flux-Residual          L2-NORM 
          0                 1           2             2    2     1       0.4135472034E-02       2    2    1         0.2156703687E+00      0.4766662625E+00
          0                 2           2             2    2     1      -0.4022692384E-03       2    2    1        -0.2156707535E-01      0.4763545002E-01
          0                 3           1             2    2     1       0.2739303805E-04       2    2    1         0.1509695551E-02      0.3331585336E-02

    ------------------------------------------------
       NWT REQUIRED            3 OUTER ITERATIONS 
       AND A TOTAL OF          5 INNER ITERATIONS.
    ------------------------------------------------

 NO OUTPUT CONTROL FOR STRESS PERIOD    4   TIME STEP   29
 
 SOLVING FOR HEAD 
                                                   Max.-Head-Change                         Max.-Flux-Residual
  Residual-Control   Outer-Iter.   Inner-Iter.     Column Row Layer    Maximum-Head-Change  Column Row Layer    Maximum-Flux-Residual          L2-NORM 
          0                 1           2             2    2     1       0.3369543518E-02       2    2    1         0.1756372930E+00      0.4353000405E+00
          0                 2           2             2    2     1      -0.3277650554E-03       2    2    1        -0.1756375291E-01      0.4340742729E-01
          0                 3           1             2    2     1       0.2231958176E-04       2    2    1         0.1229463011E-02      0.3027373497E-02

    ------------------------------------------------
       NWT REQUIRED            3 OUTER ITERATIONS 
       AND A TOTAL OF          5 INNER ITERATIONS.
    ------------------------------------------------

 NO OUTPUT CONTROL FOR STRESS PERIOD    4   TIME STEP   30



 STREAM LISTING     PERIOD      4   STEP       30

 LAYER ROW COL. STREAM  RCH.  FLOW INTO     FLOW TO   FLOW OUT OF   OVRLND.     DIRECT     STREAM       STREAM     STREAM     STREAM   STREAMBED  STREAMBED
                SEG.NO.  NO.  STRM. RCH.    AQUIFER    STRM. RCH.    RUNOFF     PRECIP       ET          HEAD       DEPTH      WIDTH   CONDCTNC.   GRADIENT

   1    1    1     1     1    2.3343E+01  2.3738E-01   2.3105E+01  0.000E+00  0.000E+00  0.000E+00  1.09420E+03  1.153E+00  1.270E+01  5.716E-02  1.384E+00
   1    2    2     1     2    2.3105E+01  3.6700E-01   2.2738E+01  0.000E+00  0.000E+00  0.000E+00  1.08921E+03  1.148E+00  1.264E+01  8.847E-02  1.383E+00
   1    3    3     1     3    2.2738E+01  3.1238E-01   2.2426E+01  0.000E+00  0.000E+00  0.000E+00  1.08356E+03  1.143E+00  1.257E+01  7.540E-02  1.381E+00
   1    3    4     1     4    2.2426E+01  2.8716E-01   2.2139E+01  0.000E+00  0.000E+00  0.000E+00  1.07855E+03  1.138E+00  1.250E+01  6.939E-02  1.379E+00
   1    4    5     2     1    2.0139E+01  3.1634E-01   1.9822E+01  0.000E+00  0.000E+00  0.000E+00  1.07299E+03  1.056E+00  1.200E+01  7.800E-02  1.352E+00
   1    5    6     2     2    1.9822E+01  2.4280E-01   1.9580E+01  0.000E+00  0.000E+00  0.000E+00  1.06756E+03  1.047E+00  1.200E+01  6.000E-02  1.349E+00
   1    6    6     2     3    1.9580E+01  2.4234E-01   1.9337E+01  0.000E+00  0.000E+00  0.000E+00  1.06283E+03  1.039E+00  1.200E+01  6.000E-02  1.346E+00
   1    7    6     2     4    1.9337E+01  2.4187E-01   1.9095E+01  0.000E+00  0.000E+00  0.000E+00  1.05811E+03  1.031E+00  1.200E+01  6.000E-02  1.344E+00
   1    8    6     2     5    1.9095E+01  2.4140E-01   1.8854E+01  0.000E+00  0.000E+00  0.000E+00  1.05338E+03  1.023E+00  1.200E+01  6.000E-02  1.341E+00
   1    3    5     3     1    2.0000E+00  2.8252E-01   1.7175E+00  0.000E+00  0.000E+00  0.000E+00  1.07555E+03  1.909E+00  9.636E+00  7.227E-02  1.955E+00
   1    3    6     3     2    1.7175E+00  2.4905E-01   1.4684E+00  0.000E+00  0.000E+00  0.000E+00  1.07264E+03  1.727E+00  8.909E+00  6.682E-02  1.864E+00
   1    3    7     3     3    1.4684E+00  1.9718E-01   1.2712E+00  0.000E+00  0.000E+00  0.000E+00  1.06987E+03  1.555E+00  8.218E+00  5.547E-02  1.777E+00
   1    4    8     3     4    1.2712E+00  2.2567E-01   1.0456E+00  0.000E+00  0.000E+00  0.000E+00  1.06682E+03  1.364E+00  7.455E+00  6.709E-02  1.682E+00
   1    5    8     3     5    1.0456E+00  1.5790E-01   8.8768E-01  0.000E+00  0.000E+00  0.000E+00  1.06362E+03  1.164E+00  6.655E+00  4.991E-02  1.582E+00
   1    6    8     3     6    8.8768E-01  5.5980E-02   8.3170E-01  0.000E+00  0.000E+00  0.000E+00  1.06158E+03  1.036E+00  6.145E+00  1.844E-02  1.518E+00
   1    5   10     4     1    1.0000E+01  9.0919E-02   9.9091E+00  0.000E+00  0.000E+00  0.000E+00  1.07836E+03  6.368E-01  1.000E+01  2.500E-02  1.212E+00
   1    5    9     4     2    9.9091E+00  1.8158E-01   9.7275E+00  0.000E+00  0.000E+00  0.000E+00  1.07154E+03  6.315E-01  1.000E+01  5.000E-02  1.211E+00
   1    6    8     4     3    9.7275E+00  1.2689E-01   9.6006E+00  0.000E+00  0.000E+00  0.000E+00  1.06381E+03  6.256E-01  1.000E+01  3.500E-02  1.209E+00
   1    6    8     5     1    1.0432E+01  2.2686E-01   1.0205E+01  0.000E+00  0.000E+00  0.000E+00  1.05868E+03  6.790E-01  1.542E+01  6.166E-02  1.226E+00
   1    7    7     5     2    1.0205E+01  2.7894E-01   9.9265E+00  0.000E+00  0.000E+00  0.000E+00  1.05417E+03  6.732E-01  1.519E+01  7.594E-02  1.224E+00
   1    8    7     5     3    9.9265E+00  1.9221E-01   9.7343E+00  0.000E+00  0.000E+00  0.000E+00  1.04992E+03  6.676E-01  1.497E+01  5.241E-02  1.223E+00
   1    8    6     5     4    9.7343E+00  1.3577E-01   9.5985E+00  0.000E+00  0.000E+00  0.000E+00  1.04691E+03  6.637E-01  1.482E+01  3.706E-02  1.221E+00
   1    9    6     6     1    2.8452E+01  2.5896E-01   2.8194E+01  0.000E+00  0.000E+00  0.000E+00  1.04404E+03  1.316E+00  1.200E+01  6.000E-02  1.439E+00
   1   10    7     6     2    2.8194E+01  2.5853E-01   2.7935E+01  0.000E+00  0.000E+00  0.000E+00  1.03949E+03  1.309E+00  1.200E+01  6.000E-02  1.436E+00
   1   11    7     6     3    2.7935E+01  2.5809E-01   2.7677E+01  0.000E+00  0.000E+00  0.000E+00  1.03494E+03  1.302E+00  1.200E+01  6.000E-02  1.434E+00
   1   12    7     6     4    2.7677E+01  2.5766E-01   2.7419E+01  0.000E+00  0.000E+00  0.000E+00  1.03039E+03  1.294E+00  1.200E+01  6.000E-02  1.431E+00
   1   13    7     6     5    2.7419E+01  8.2030E-03   2.7411E+01  0.000E+00  0.000E+00  0.000E+00  1.02720E+03  1.291E+00  1.200E+01  2.400E-02  1.139E-01
   1   14    9     7     1    1.5000E+02  1.3670E+00   1.4863E+02  0.000E+00  0.000E+00  0.000E+00  1.03987E+03  2.288E+00  5.529E+01  5.593E-01  8.147E-01
   1   13    8     7     2    1.4863E+02  1.9172E+00   1.4672E+02  0.000E+00  0.000E+00  0.000E+00  1.03478E+03  2.279E+00  5.526E+01  6.148E-01  1.040E+00
   1   13    7     7     3    1.4672E+02  1.5809E+00   1.4513E+02  0.000E+00  0.000E+00  0.000E+00  1.02969E+03  2.270E+00  5.521E+01  5.584E-01  9.437E-01
   1   13    6     8     1    1.7255E+02  1.0238E+00   1.7152E+02  0.000E+00  0.000E+00  0.000E+00  1.02484E+03  2.965E+00  4.300E+01  4.382E-01  7.788E-01
   1   13    5     8     2    1.7152E+02  2.5244E-01   1.7127E+02  0.000E+00  0.000E+00  0.000E+00  1.01859E+03  2.961E+00  4.294E+01  4.376E-01  1.923E-01
   1   13    4     8     3    1.7127E+02 -2.2862E+00   1.7356E+02  0.000E+00  0.000E+00  0.000E+00  1.01234E+03  2.968E+00  4.303E+01  4.385E+00 -1.738E-01
   1   13    3     8     4    1.7356E+02 -3.5977E+00   1.7715E+02  0.000E+00  0.000E+00  0.000E+00  1.00611E+03  2.987E+00  4.331E+01  4.413E+00 -2.717E-01
   1   13    2     8     5    1.7715E+02 -2.6042E+00   1.7976E+02  0.000E+00  0.000E+00  0.000E+00  9.99881E+02  3.006E+00  4.359E+01  4.442E+00 -1.954E-01
   1   13    1     8     6    1.7976E+02 -1.9818E+00   1.8174E+02  0.000E+00  0.000E+00  0.000E+00  9.94896E+02  3.021E+00  4.380E+01  2.678E+00 -2.467E-01
   1    8    6     9     1    0.0000E+00  0.0000E+00   0.0000E+00  0.000E+00  0.000E+00  0.000E+00  1.07875E+03  0.000E+00  4.000E+00  0.000E+00  1.000E+00
   1    8    5     9     2    0.0000E+00  0.0000E+00   0.0000E+00  0.000E+00  0.000E+00  0.000E+00  1.07825E+03  0.000E+00  4.000E+00  0.000E+00  1.000E+00





UNSATURATED ZONE PACKAGE VOLUMETRIC BUDGET FOR  TIME STEP    30 STRESS PERIOD    4
  ------------------------------------------------------------------------------



     CUMULATIVE VOLUMES      L**3       RATES FOR THIS TIME STEP      L**3/T
     ------------------                 ------------------------

           IN:                                      IN:
           ---                                      ---
        INFILTRATION =    34848397.6743          INFILTRATION =           4.4075

          OUT:                                     OUT:
          ----                                     ----
              UZF ET =     5720249.6592                UZF ET =           0.7250
        UZF RECHARGE =       73224.0000          UZF RECHARGE =       0.0000E+00

            IN - OUT =    29054924.0151              IN - OUT =           3.6825

          STORAGE:                                 STORAGE:
          --------                                 --------
      STORAGE CHANGE =    29054923.8326        STORAGE CHANGE =           3.6825

 PERCENT DISCREPANCY IS DIFFERENCE BETWEEN IN-OUT MINUS CHANGE IN STORAGE
 DIVIDED BY THE AVERAGE OF IN AND OUT TIMES 100

 PERCENT DISCREPANCY =           0.00     PERCENT DISCREPANCY =           0.00






1
  VOLUMETRIC BUDGET FOR AGRICULTURAL FIELDS AT  END OF TIME STEP   30, STRESS PERIOD   4
  ------------------------------------------------------------------------------

     CUMULATIVE VOLUMES      L**3       RATES FOR THIS TIME STEP      L**3/T
     ------------------                 ------------------------

           IN:                                      IN:
           ---                                      ---
               AG WELLS  =           0.0000                 AG WELLS  =           0.0000
      DIVERSION SEGMENTS =           0.0000        DIVERSION SEGMENTS =           0.0000
           GW IRRIGATION =           0.0000             GW IRRIGATION =           0.0000
           SW IRRIGATION =           0.0000             SW IRRIGATION =           0.0000
        SYSTEM LOSSES GW =           0.0000          SYSTEM LOSSES GW =           0.0000
        SYSTEM LOSSES SW =           0.0000          SYSTEM LOSSES SW =           0.0000

                TOTAL IN =           0.0000                  TOTAL IN =           0.0000

          OUT:                                     OUT:
          ----                                     ----
               AG WELLS  =           0.0000                 AG WELLS  =           0.0000
      DIVERSION SEGMENTS =           0.0000        DIVERSION SEGMENTS =           0.0000
           GW IRRIGATION =           0.0000             GW IRRIGATION =           0.0000
           SW IRRIGATION =           0.0000             SW IRRIGATION =           0.0000
        SYSTEM LOSSES GW =           0.0000          SYSTEM LOSSES GW =           0.0000
        SYSTEM LOSSES SW =           0.0000          SYSTEM LOSSES SW =           0.0000

               TOTAL OUT =           0.0000                 TOTAL OUT =           0.0000

                IN - OUT =           0.0000                  IN - OUT =           0.0000

     PERCENT DISCREPANCY =           0.00         PERCENT DISCREPANCY =           0.00



1
  VOLUMETRIC BUDGET FOR ENTIRE MODEL AT END OF TIME STEP   30, STRESS PERIOD   4
  ------------------------------------------------------------------------------

     CUMULATIVE VOLUMES      L**3       RATES FOR THIS TIME STEP      L**3/T
     ------------------                 ------------------------

           IN:                                      IN:
           ---                                      ---
             STORAGE     =     4302727.5000               STORAGE     =           0.6663
       CONSTANT HEAD     =           0.0000         CONSTANT HEAD     =           0.0000
     HEAD DEP BOUNDS     =     2295783.0000       HEAD DEP BOUNDS     =           0.2879
      STREAM LEAKAGE     =    93457376.0000        STREAM LEAKAGE     =          12.0729
        UZF RECHARGE     =       73223.9531          UZF RECHARGE     =           0.0000
               GW ET     =           0.0000                 GW ET     =           0.0000
     SURFACE LEAKAGE     =           0.0000       SURFACE LEAKAGE     =           0.0000
           AG WELLS      =           0.0000             AG WELLS      =           0.0000

                TOTAL IN =   100129112.0000                  TOTAL IN =          13.0270

          OUT:                                     OUT:
          ----                                     ----
             STORAGE     =    17554010.0000               STORAGE     =           2.2674
       CONSTANT HEAD     =           0.0000         CONSTANT HEAD     =           0.0000
     HEAD DEP BOUNDS     =     2297699.7500       HEAD DEP BOUNDS     =           0.2902
      STREAM LEAKAGE     =    80281160.0000        STREAM LEAKAGE     =          10.4699
        UZF RECHARGE     =           0.0000          UZF RECHARGE     =           0.0000
               GW ET     =           0.0000                 GW ET     =           0.0000
     SURFACE LEAKAGE     =           0.0000       SURFACE LEAKAGE     =           0.0000
           AG WELLS      =           0.0000             AG WELLS      =           0.0000

               TOTAL OUT =   100132872.0000                 TOTAL OUT =          13.0275

                IN - OUT =       -3760.0000                  IN - OUT =      -4.5586E-04

     PERCENT DISCREPANCY =          -0.00         PERCENT DISCREPANCY =          -0.00






         TIME SUMMARY AT END OF TIME STEP   30 IN STRESS PERIOD    4
                    SECONDS     MINUTES      HOURS       DAYS        YEARS
                    -----------------------------------------------------------
   TIME STEP LENGTH  87667.      1461.1      24.352      1.0147     2.77799E-03
 STRESS PERIOD TIME 2.63000E+06  43833.      730.56      30.440     8.33397E-02
         TOTAL TIME 7.97639E+06 1.32940E+05  2215.7      92.319     0.25276    
1
1
                            STRESS PERIOD NO.    5, LENGTH =   2630000.    
                            -----------------------------------------------

                              NUMBER OF TIME STEPS =    30

                               MULTIPLIER FOR DELT =     1.000

                            INITIAL TIME STEP SIZE =   87666.66    

 REUSING NON-PARAMETER GHB CELLS FROM LAST STRESS PERIOD

      2 GHB CELLS

 REUSING STREAM SEGMENT DATA FROM LAST STRESS PERIOD



            AREAL INFILTRATION RATE
 READING ON UNIT   19 WITH FORMAT: (10F4.0)            

            1           2           3           4           5           6           7           8           9          10
 ........................................................................................................................
   1   1.2000E-09   0.000       0.000       0.000       0.000       0.000       0.000       0.000       0.000       0.000    
   2   2.1000E-09  2.0000E-09  8.0000E-10  8.5000E-09   0.000       0.000       0.000       0.000       0.000       0.000    
   3   5.0000E-10  1.1000E-09  8.8000E-09  5.5000E-09   0.000       0.000       0.000       0.000       0.000       0.000    
   4   8.5000E-09  1.1000E-09  1.1000E-09  1.1000E-09  2.0000E-09   0.000       0.000       0.000       0.000       0.000    
   5   8.5000E-09  1.1000E-09  1.1000E-09  1.1000E-09  1.1000E-09   0.000       0.000       0.000       0.000       0.000    
   6   8.5000E-09  5.2000E-09  2.1000E-09  1.1000E-09  1.5000E-09   0.000       0.000       0.000       0.000       0.000    
   7   8.5000E-09  5.2000E-09  2.1000E-09  1.2000E-09  2.0000E-09   0.000       0.000       0.000       0.000       0.000    
   8   5.0000E-10  5.2000E-09  2.1000E-09  1.2000E-09  5.0000E-09   0.000       0.000       0.000       0.000       0.000    
   9   5.0000E-10  5.2000E-09  2.1000E-09  1.2000E-09  5.0000E-09   0.000       0.000       0.000       0.000       0.000    
  10   5.0000E-10  5.2000E-09  2.1000E-09  1.2000E-09  5.8000E-09   0.000       0.000       0.000       0.000       0.000    
  11   1.0000E-10  1.1000E-09  1.1000E-09  1.2000E-09  5.0000E-09   0.000       0.000       0.000       0.000       0.000    
  12   1.1000E-09  1.1000E-09  1.1000E-09  1.1000E-09  2.0000E-09   0.000       0.000       0.000       0.000       0.000    
  13   1.1000E-09  2.2000E-09  2.2000E-09  2.1000E-09  1.0000E-09   0.000       0.000       0.000       0.000       0.000    
  14   2.0000E-10  5.5000E-09  5.5000E-09  5.2000E-09  1.0000E-09   0.000       0.000       0.000       0.000       0.000    
  15    0.000      8.8000E-09  8.8000E-09   0.000       0.000       0.000       0.000       0.000       0.000       0.000    

                  ET RATE =  2.500000E-08

 USING ET EXTINCTION DEPTH FROM PREVIOUS STRESS PERIOD. CURRENT PERIOD IS:       5

 USING EXTINCTION WATER CONTENT FROM PREVIOUS STRESS PERIOD. CURRENT PERIOD IS:       5

 USING AIR ENTRY PRESSURE FROM PREVIOUS STRESS PERIOD. CURRENT PERIOD IS:       5

 USING ROOT PRESSURE HEAD FROM PREVIOUS STRESS PERIOD. CURRENT PERIOD IS:       5

 USING ROOT ACTIVITY FROM PREVIOUS STRESS PERIOD. CURRENT PERIOD IS:       5

 PROCESSING AG STRESS PERIOD DATA

 READING AG STRESS PERIOD DATA

 READING IRRIGATION SEGMENT

 READING IRRIGATION WELL

 READING SUPPLEMENTAL WELL

 END PROCESSING AG STRESS PERIOD DATA OPTIONS
 
 SOLVING FOR HEAD 
                                                   Max.-Head-Change                         Max.-Flux-Residual
  Residual-Control   Outer-Iter.   Inner-Iter.     Column Row Layer    Maximum-Head-Change  Column Row Layer    Maximum-Flux-Residual          L2-NORM 
          0                 1           2             4   13     1      -0.6298700298E-02       4   13    1        -0.3612941271E+00      0.6577797140E+00
          0                 2           2             4   13     1       0.6107026001E-03       4   13    1         0.3601675459E-01      0.6542216625E-01
          0                 3           1             4   13     1      -0.4113355523E-04       4   13    1        -0.2494202498E-02      0.4450843571E-02

    ------------------------------------------------
       NWT REQUIRED            3 OUTER ITERATIONS 
       AND A TOTAL OF          5 INNER ITERATIONS.
    ------------------------------------------------

 NO OUTPUT CONTROL FOR STRESS PERIOD    5   TIME STEP    1
 
 SOLVING FOR HEAD 
                                                   Max.-Head-Change                         Max.-Flux-Residual
  Residual-Control   Outer-Iter.   Inner-Iter.     Column Row Layer    Maximum-Head-Change  Column Row Layer    Maximum-Flux-Residual          L2-NORM 
          0                 1           2             4   13     1      -0.5706167116E-02       4   13    1        -0.3271681183E+00      0.6134098322E+00
          0                 2           2             5    7     1      -0.3177463765E-02       5    6    1        -0.1731921142E+00      0.4208386409E+00
          0                 3           2             4    7     1       0.2897684253E-02       5    6    1         0.1601712388E+00      0.3940615845E+00
          0                 4           1             4    7     1      -0.9236921455E-04       5    6    1        -0.5249687536E-02      0.1319065175E-01

    ------------------------------------------------
       NWT REQUIRED            4 OUTER ITERATIONS 
       AND A TOTAL OF          7 INNER ITERATIONS.
    ------------------------------------------------

 OUTPUT CONTROL FOR STRESS PERIOD    5   TIME STEP    2
    PRINT BUDGET
    SAVE BUDGET
 UBDSV1 SAVING "         STORAGE" ON UNIT 102 AT TIME STEP  2, STRESS PERIOD   5
 UBDSV2 SAVING "   CONSTANT HEAD" ON UNIT 102 AT TIME STEP  2, STRESS PERIOD   5
 UBDSV1 SAVING "FLOW RIGHT FACE " ON UNIT 102 AT TIME STEP  2, STRESS PERIOD   5
 UBDSV1 SAVING "FLOW FRONT FACE " ON UNIT 102 AT TIME STEP  2, STRESS PERIOD   5

  HEAD DEP BOUNDS   PERIOD    5   STEP     2
 BOUNDARY      1   LAYER   1   ROW    13   COL     1   RATE   -0.289950    
 BOUNDARY      2   LAYER   1   ROW    14   COL     9   RATE    0.287882    



 STREAM LISTING     PERIOD      5   STEP        2

 LAYER ROW COL. STREAM  RCH.  FLOW INTO     FLOW TO   FLOW OUT OF   OVRLND.     DIRECT     STREAM       STREAM     STREAM     STREAM   STREAMBED  STREAMBED
                SEG.NO.  NO.  STRM. RCH.    AQUIFER    STRM. RCH.    RUNOFF     PRECIP       ET          HEAD       DEPTH      WIDTH   CONDCTNC.   GRADIENT

   1    1    1     1     1    1.0500E+01  1.5271E-01   1.0347E+01  0.000E+00  0.000E+00  0.000E+00  1.09396E+03  9.109E-01  8.677E+00  3.905E-02  1.304E+00
   1    2    2     1     2    1.0347E+01  2.3504E-01   1.0112E+01  0.000E+00  0.000E+00  0.000E+00  1.08896E+03  9.059E-01  8.597E+00  6.018E-02  1.302E+00
   1    3    3     1     3    1.0112E+01  1.9904E-01   9.9132E+00  0.000E+00  0.000E+00  0.000E+00  1.08332E+03  9.003E-01  8.505E+00  5.103E-02  1.300E+00
   1    3    4     1     4    9.9132E+00  1.8195E-01   9.7312E+00  0.000E+00  0.000E+00  0.000E+00  1.07830E+03  8.947E-01  8.417E+00  4.672E-02  1.298E+00
   1    4    5     2     1    7.7312E+00  2.8007E-01   7.4512E+00  0.000E+00  0.000E+00  0.000E+00  1.07252E+03  5.907E-01  1.200E+01  7.800E-02  1.197E+00
   1    5    6     2     2    7.4512E+00  2.1474E-01   7.2364E+00  0.000E+00  0.000E+00  0.000E+00  1.06709E+03  5.790E-01  1.200E+01  6.000E-02  1.193E+00
   1    6    6     2     3    7.2364E+00  2.1413E-01   7.0223E+00  0.000E+00  0.000E+00  0.000E+00  1.06236E+03  5.688E-01  1.200E+01  6.000E-02  1.190E+00
   1    7    6     2     4    7.0223E+00  2.1351E-01   6.8088E+00  0.000E+00  0.000E+00  0.000E+00  1.05763E+03  5.585E-01  1.200E+01  6.000E-02  1.186E+00
   1    8    6     2     5    6.8088E+00  2.1289E-01   6.5959E+00  0.000E+00  0.000E+00  0.000E+00  1.05291E+03  5.481E-01  1.200E+01  6.000E-02  1.183E+00
   1    3    5     3     1    2.0000E+00  2.8252E-01   1.7175E+00  0.000E+00  0.000E+00  0.000E+00  1.07555E+03  1.909E+00  9.636E+00  7.227E-02  1.955E+00
   1    3    6     3     2    1.7175E+00  2.4905E-01   1.4684E+00  0.000E+00  0.000E+00  0.000E+00  1.07264E+03  1.727E+00  8.909E+00  6.682E-02  1.864E+00
   1    3    7     3     3    1.4684E+00  1.9718E-01   1.2712E+00  0.000E+00  0.000E+00  0.000E+00  1.06987E+03  1.555E+00  8.218E+00  5.547E-02  1.777E+00
   1    4    8     3     4    1.2712E+00  2.2567E-01   1.0456E+00  0.000E+00  0.000E+00  0.000E+00  1.06682E+03  1.364E+00  7.455E+00  6.709E-02  1.682E+00
   1    5    8     3     5    1.0456E+00  1.5790E-01   8.8768E-01  0.000E+00  0.000E+00  0.000E+00  1.06362E+03  1.164E+00  6.655E+00  4.991E-02  1.582E+00
   1    6    8     3     6    8.8768E-01  5.5980E-02   8.3170E-01  0.000E+00  0.000E+00  0.000E+00  1.06158E+03  1.036E+00  6.145E+00  1.844E-02  1.518E+00
   1    5   10     4     1    1.0000E+01  9.0919E-02   9.9091E+00  0.000E+00  0.000E+00  0.000E+00  1.07836E+03  6.368E-01  1.000E+01  2.500E-02  1.212E+00
   1    5    9     4     2    9.9091E+00  1.8158E-01   9.7275E+00  0.000E+00  0.000E+00  0.000E+00  1.07154E+03  6.315E-01  1.000E+01  5.000E-02  1.211E+00
   1    6    8     4     3    9.7275E+00  1.2689E-01   9.6006E+00  0.000E+00  0.000E+00  0.000E+00  1.06381E+03  6.256E-01  1.000E+01  3.500E-02  1.209E+00
   1    6    8     5     1    1.0432E+01  2.2686E-01   1.0205E+01  0.000E+00  0.000E+00  0.000E+00  1.05868E+03  6.790E-01  1.542E+01  6.166E-02  1.226E+00
   1    7    7     5     2    1.0205E+01  2.7894E-01   9.9265E+00  0.000E+00  0.000E+00  0.000E+00  1.05417E+03  6.732E-01  1.519E+01  7.594E-02  1.224E+00
   1    8    7     5     3    9.9265E+00  1.9221E-01   9.7343E+00  0.000E+00  0.000E+00  0.000E+00  1.04992E+03  6.676E-01  1.497E+01  5.241E-02  1.223E+00
   1    8    6     5     4    9.7343E+00  1.3577E-01   9.5985E+00  0.000E+00  0.000E+00  0.000E+00  1.04691E+03  6.637E-01  1.482E+01  3.706E-02  1.221E+00
   1    9    6     6     1    1.3950E+01  2.3161E-01   1.3718E+01  0.000E+00  0.000E+00  0.000E+00  1.04359E+03  8.602E-01  1.200E+01  6.000E-02  1.287E+00
   1   10    7     6     2    1.3718E+01  2.3110E-01   1.3487E+01  0.000E+00  0.000E+00  0.000E+00  1.03903E+03  8.517E-01  1.200E+01  6.000E-02  1.284E+00
   1   11    7     6     3    1.3487E+01  2.3058E-01   1.3256E+01  0.000E+00  0.000E+00  0.000E+00  1.03448E+03  8.430E-01  1.200E+01  6.000E-02  1.281E+00
   1   12    7     6     4    1.3256E+01  2.3006E-01   1.3026E+01  0.000E+00  0.000E+00  0.000E+00  1.02993E+03  8.344E-01  1.200E+01  6.000E-02  1.278E+00
   1   13    7     6     5    1.3026E+01 -2.8313E-02   1.3055E+01  0.000E+00  0.000E+00  0.000E+00  1.02674E+03  8.305E-01  1.200E+01  2.400E-01 -3.932E-02
   1   14    9     7     1    1.5000E+02  1.3670E+00   1.4863E+02  0.000E+00  0.000E+00  0.000E+00  1.03987E+03  2.288E+00  5.529E+01  5.593E-01  8.147E-01
   1   13    8     7     2    1.4863E+02  1.9171E+00   1.4672E+02  0.000E+00  0.000E+00  0.000E+00  1.03478E+03  2.279E+00  5.526E+01  6.148E-01  1.039E+00
   1   13    7     7     3    1.4672E+02  1.5810E+00   1.4513E+02  0.000E+00  0.000E+00  0.000E+00  1.02969E+03  2.270E+00  5.521E+01  5.584E-01  9.438E-01
   1   13    6     8     1    1.5819E+02  9.5187E-01   1.5724E+02  0.000E+00  0.000E+00  0.000E+00  1.02475E+03  2.871E+00  4.163E+01  4.242E-01  7.479E-01
   1   13    5     8     2    1.5724E+02  2.0486E-01   1.5703E+02  0.000E+00  0.000E+00  0.000E+00  1.01849E+03  2.867E+00  4.157E+01  4.236E-01  1.612E-01
   1   13    4     8     3    1.5703E+02 -2.5590E+00   1.5959E+02  0.000E+00  0.000E+00  0.000E+00  1.01225E+03  2.875E+00  4.169E+01  4.248E+00 -2.008E-01
   1   13    3     8     4    1.5959E+02 -3.8307E+00   1.6342E+02  0.000E+00  0.000E+00  0.000E+00  1.00602E+03  2.897E+00  4.200E+01  4.280E+00 -2.983E-01
   1   13    2     8     5    1.6342E+02 -2.8576E+00   1.6628E+02  0.000E+00  0.000E+00  0.000E+00  9.99794E+02  2.919E+00  4.233E+01  4.313E+00 -2.208E-01
   1   13    1     8     6    1.6628E+02 -2.1333E+00   1.6841E+02  0.000E+00  0.000E+00  0.000E+00  9.94811E+02  2.936E+00  4.257E+01  2.603E+00 -2.732E-01
   1    8    6     9     1    2.2448E+00  0.0000E+00   2.2448E+00  0.000E+00  0.000E+00  0.000E+00  1.07965E+03  8.969E-01  4.000E+00  0.000E+00  1.299E+00
   1    8    5     9     2    2.2448E+00  0.0000E+00   2.2448E+00  0.000E+00  0.000E+00  0.000E+00  1.07915E+03  8.969E-01  4.000E+00  0.000E+00  1.299E+00



 UBDSV3 SAVING "           GW ET" ON UNIT  61 AT TIME STEP  2, STRESS PERIOD   5
 UBDSV3 SAVING "    UZF RECHARGE" ON UNIT  61 AT TIME STEP  2, STRESS PERIOD   5
 UBDSV3 SAVING " SURFACE LEAKAGE" ON UNIT  61 AT TIME STEP  2, STRESS PERIOD   5
 UBDSV3 SAVING "       HORT+DUNN" ON UNIT  61 AT TIME STEP  2, STRESS PERIOD   5
 UBDSV3 SAVING "  STORAGE CHANGE" ON UNIT  61 AT TIME STEP  2, STRESS PERIOD   5


UNSATURATED ZONE PACKAGE VOLUMETRIC BUDGET FOR  TIME STEP     2 STRESS PERIOD    5
  ------------------------------------------------------------------------------



     CUMULATIVE VOLUMES      L**3       RATES FOR THIS TIME STEP      L**3/T
     ------------------                 ------------------------

           IN:                                      IN:
           ---                                      ---
        INFILTRATION =    35817978.6711          INFILTRATION =           6.6524

          OUT:                                     OUT:
          ----                                     ----
              UZF ET =    11107781.3896                UZF ET =          25.2083
        UZF RECHARGE =       73224.0000          UZF RECHARGE =       0.0000E+00

            IN - OUT =    24636973.2815              IN - OUT =         -18.5559

          STORAGE:                                 STORAGE:
          --------                                 --------
      STORAGE CHANGE =    24636973.0074        STORAGE CHANGE =         -18.5559

 PERCENT DISCREPANCY IS DIFFERENCE BETWEEN IN-OUT MINUS CHANGE IN STORAGE
 DIVIDED BY THE AVERAGE OF IN AND OUT TIMES 100

 PERCENT DISCREPANCY =           0.00     PERCENT DISCREPANCY =           0.00






 

            AG WELLS      PERIOD    5   STEP   2
 AG WELL      1   LAYER   1   ROW     6   COL     4   RATE   -1.853414E-02
 AG WELL      2   LAYER   1   ROW     6   COL     5   RATE   -1.853414E-02
 AG WELL      3   LAYER   1   ROW     7   COL     4   RATE   -1.853414E-02
 AG WELL      4   LAYER   1   ROW     7   COL     5   RATE   -1.853414E-02
 AG WELL      5   LAYER   1   ROW     8   COL     4   RATE   -1.853414E-02
 AG WELL      6   LAYER   1   ROW     8   COL     5   RATE   -1.853414E-02
 
 

   DIVERSION SEGMENTS     PERIOD    5   STEP   2
 SEGMENT      9   RATE     2.24482    
 
 

        SW IRRIGATION     PERIOD    5   STEP   2
 SEGMENT      9   ROW     6   COL     4   RATE    0.355609    
 SEGMENT      9   ROW     6   COL     5   RATE    0.355609    
 SEGMENT      9   ROW     7   COL     4   RATE    0.355609    
 SEGMENT      9   ROW     7   COL     5   RATE    0.355609    
 SEGMENT      9   ROW     8   COL     4   RATE    0.355609    
 SEGMENT      9   ROW     8   COL     5   RATE    0.355609    
 
 

        GW IRRIGATION     PERIOD    5   STEP   2
 AG WELL      1   ROW     6   COL     4   RATE    1.853415E-02
 AG WELL      2   ROW     6   COL     5   RATE    1.853415E-02
 AG WELL      3   ROW     7   COL     4   RATE    1.853415E-02
 AG WELL      4   ROW     7   COL     5   RATE    1.853415E-02
 AG WELL      5   ROW     8   COL     4   RATE    1.853415E-02
 AG WELL      6   ROW     8   COL     5   RATE    1.853415E-02
 
1
  VOLUMETRIC BUDGET FOR AGRICULTURAL FIELDS AT  END OF TIME STEP    2, STRESS PERIOD   5
  ------------------------------------------------------------------------------

     CUMULATIVE VOLUMES      L**3       RATES FOR THIS TIME STEP      L**3/T
     ------------------                 ------------------------

           IN:                                      IN:
           ---                                      ---
               AG WELLS  =        9748.9600                 AG WELLS  =           0.1112
      DIVERSION SEGMENTS =      196795.6250        DIVERSION SEGMENTS =           2.2448
           GW IRRIGATION =           0.0000             GW IRRIGATION =           0.0000
           SW IRRIGATION =           0.0000             SW IRRIGATION =           0.0000
        SYSTEM LOSSES GW =           0.0000          SYSTEM LOSSES GW =           0.0000
        SYSTEM LOSSES SW =           0.0000          SYSTEM LOSSES SW =           0.0000

                TOTAL IN =      206544.5781                  TOTAL IN =           2.3560

          OUT:                                     OUT:
          ----                                     ----
               AG WELLS  =           0.0000                 AG WELLS  =           0.0000
      DIVERSION SEGMENTS =           0.0000        DIVERSION SEGMENTS =           0.0000
           GW IRRIGATION =        9748.9600             GW IRRIGATION =           0.1112
           SW IRRIGATION =      196799.5469             SW IRRIGATION =           2.2449
        SYSTEM LOSSES GW =           0.0000          SYSTEM LOSSES GW =           0.0000
        SYSTEM LOSSES SW =           0.0000          SYSTEM LOSSES SW =           0.0000

               TOTAL OUT =      206548.5000                 TOTAL OUT =           2.3561

                IN - OUT =          -3.9219                  IN - OUT =      -4.4823E-05

     PERCENT DISCREPANCY =          -0.00         PERCENT DISCREPANCY =          -0.00



1
  VOLUMETRIC BUDGET FOR ENTIRE MODEL AT END OF TIME STEP    2, STRESS PERIOD   5
  ------------------------------------------------------------------------------

     CUMULATIVE VOLUMES      L**3       RATES FOR THIS TIME STEP      L**3/T
     ------------------                 ------------------------

           IN:                                      IN:
           ---                                      ---
             STORAGE     =     4584150.0000               STORAGE     =           1.6611
       CONSTANT HEAD     =           0.0000         CONSTANT HEAD     =           0.0000
     HEAD DEP BOUNDS     =     2346258.2500       HEAD DEP BOUNDS     =           0.2879
      STREAM LEAKAGE     =    95433128.0000        STREAM LEAKAGE     =          11.2507
        UZF RECHARGE     =       73223.9531          UZF RECHARGE     =           0.0000
               GW ET     =           0.0000                 GW ET     =           0.0000
     SURFACE LEAKAGE     =           0.0000       SURFACE LEAKAGE     =           0.0000
           AG WELLS      =           0.0000             AG WELLS      =           0.0000

                TOTAL IN =   102436760.0000                  TOTAL IN =          13.1997

          OUT:                                     OUT:
          ----                                     ----
             STORAGE     =    17809080.0000               STORAGE     =           1.3889
       CONSTANT HEAD     =           0.0000         CONSTANT HEAD     =           0.0000
     HEAD DEP BOUNDS     =     2348547.5000       HEAD DEP BOUNDS     =           0.2900
      STREAM LEAKAGE     =    82273080.0000        STREAM LEAKAGE     =          11.4089
        UZF RECHARGE     =           0.0000          UZF RECHARGE     =           0.0000
               GW ET     =           0.0000                 GW ET     =           0.0000
     SURFACE LEAKAGE     =           0.0000       SURFACE LEAKAGE     =           0.0000
           AG WELLS      =        9748.9600             AG WELLS      =           0.1112

               TOTAL OUT =   102440456.0000                 TOTAL OUT =          13.1990

                IN - OUT =       -3696.0000                  IN - OUT =       7.2861E-04

     PERCENT DISCREPANCY =          -0.00         PERCENT DISCREPANCY =           0.01






         TIME SUMMARY AT END OF TIME STEP    2 IN STRESS PERIOD    5
                    SECONDS     MINUTES      HOURS       DAYS        YEARS
                    -----------------------------------------------------------
   TIME STEP LENGTH  87667.      1461.1      24.352      1.0147     2.77799E-03
 STRESS PERIOD TIME 1.75333E+05  2922.2      48.704      2.0293     5.55598E-03
         TOTAL TIME 8.15173E+06 1.35862E+05  2264.4      94.349     0.25831    
1
 
 SOLVING FOR HEAD 
                                                   Max.-Head-Change                         Max.-Flux-Residual
  Residual-Control   Outer-Iter.   Inner-Iter.     Column Row Layer    Maximum-Head-Change  Column Row Layer    Maximum-Flux-Residual          L2-NORM 
          0                 1           2             4   13     1      -0.5099657418E-02       4   13    1        -0.2922470669E+00      0.5683213951E+00
          0                 2           2             5    7     1      -0.3470327991E-02       5    6    1        -0.1890964817E+00      0.4595347530E+00
          0                 3           2             4    7     1       0.2826677459E-02       5    6    1         0.1562488944E+00      0.3848574124E+00
          0                 4           1             4   13     1      -0.7295995087E-04       4   13    1        -0.4412851613E-02      0.7758158740E-02

    ------------------------------------------------
       NWT REQUIRED            4 OUTER ITERATIONS 
       AND A TOTAL OF          7 INNER ITERATIONS.
    ------------------------------------------------

 OUTPUT CONTROL FOR STRESS PERIOD    5   TIME STEP    3
    PRINT BUDGET
    SAVE BUDGET
 UBDSV1 SAVING "         STORAGE" ON UNIT 102 AT TIME STEP  3, STRESS PERIOD   5
 UBDSV2 SAVING "   CONSTANT HEAD" ON UNIT 102 AT TIME STEP  3, STRESS PERIOD   5
 UBDSV1 SAVING "FLOW RIGHT FACE " ON UNIT 102 AT TIME STEP  3, STRESS PERIOD   5
 UBDSV1 SAVING "FLOW FRONT FACE " ON UNIT 102 AT TIME STEP  3, STRESS PERIOD   5

  HEAD DEP BOUNDS   PERIOD    5   STEP     3
 BOUNDARY      1   LAYER   1   ROW    13   COL     1   RATE   -0.289840    
 BOUNDARY      2   LAYER   1   ROW    14   COL     9   RATE    0.287883    



 STREAM LISTING     PERIOD      5   STEP        3

 LAYER ROW COL. STREAM  RCH.  FLOW INTO     FLOW TO   FLOW OUT OF   OVRLND.     DIRECT     STREAM       STREAM     STREAM     STREAM   STREAMBED  STREAMBED
                SEG.NO.  NO.  STRM. RCH.    AQUIFER    STRM. RCH.    RUNOFF     PRECIP       ET          HEAD       DEPTH      WIDTH   CONDCTNC.   GRADIENT

   1    1    1     1     1    1.0500E+01  1.5271E-01   1.0347E+01  0.000E+00  0.000E+00  0.000E+00  1.09396E+03  9.109E-01  8.677E+00  3.905E-02  1.304E+00
   1    2    2     1     2    1.0347E+01  2.3504E-01   1.0112E+01  0.000E+00  0.000E+00  0.000E+00  1.08896E+03  9.059E-01  8.597E+00  6.018E-02  1.302E+00
   1    3    3     1     3    1.0112E+01  1.9904E-01   9.9132E+00  0.000E+00  0.000E+00  0.000E+00  1.08332E+03  9.003E-01  8.505E+00  5.103E-02  1.300E+00
   1    3    4     1     4    9.9132E+00  1.8195E-01   9.7312E+00  0.000E+00  0.000E+00  0.000E+00  1.07830E+03  8.947E-01  8.417E+00  4.672E-02  1.298E+00
   1    4    5     2     1    7.7312E+00  2.8007E-01   7.4512E+00  0.000E+00  0.000E+00  0.000E+00  1.07252E+03  5.907E-01  1.200E+01  7.800E-02  1.197E+00
   1    5    6     2     2    7.4512E+00  2.1474E-01   7.2364E+00  0.000E+00  0.000E+00  0.000E+00  1.06709E+03  5.790E-01  1.200E+01  6.000E-02  1.193E+00
   1    6    6     2     3    7.2364E+00  2.1413E-01   7.0223E+00  0.000E+00  0.000E+00  0.000E+00  1.06236E+03  5.688E-01  1.200E+01  6.000E-02  1.190E+00
   1    7    6     2     4    7.0223E+00  2.1351E-01   6.8088E+00  0.000E+00  0.000E+00  0.000E+00  1.05763E+03  5.585E-01  1.200E+01  6.000E-02  1.186E+00
   1    8    6     2     5    6.8088E+00  2.1289E-01   6.5959E+00  0.000E+00  0.000E+00  0.000E+00  1.05291E+03  5.481E-01  1.200E+01  6.000E-02  1.183E+00
   1    3    5     3     1    2.0000E+00  2.8252E-01   1.7175E+00  0.000E+00  0.000E+00  0.000E+00  1.07555E+03  1.909E+00  9.636E+00  7.227E-02  1.955E+00
   1    3    6     3     2    1.7175E+00  2.4905E-01   1.4684E+00  0.000E+00  0.000E+00  0.000E+00  1.07264E+03  1.727E+00  8.909E+00  6.682E-02  1.864E+00
   1    3    7     3     3    1.4684E+00  1.9718E-01   1.2712E+00  0.000E+00  0.000E+00  0.000E+00  1.06987E+03  1.555E+00  8.218E+00  5.547E-02  1.777E+00
   1    4    8     3     4    1.2712E+00  2.2567E-01   1.0456E+00  0.000E+00  0.000E+00  0.000E+00  1.06682E+03  1.364E+00  7.455E+00  6.709E-02  1.682E+00
   1    5    8     3     5    1.0456E+00  1.5790E-01   8.8768E-01  0.000E+00  0.000E+00  0.000E+00  1.06362E+03  1.164E+00  6.655E+00  4.991E-02  1.582E+00
   1    6    8     3     6    8.8768E-01  5.5980E-02   8.3170E-01  0.000E+00  0.000E+00  0.000E+00  1.06158E+03  1.036E+00  6.145E+00  1.844E-02  1.518E+00
   1    5   10     4     1    1.0000E+01  9.0919E-02   9.9091E+00  0.000E+00  0.000E+00  0.000E+00  1.07836E+03  6.368E-01  1.000E+01  2.500E-02  1.212E+00
   1    5    9     4     2    9.9091E+00  1.8158E-01   9.7275E+00  0.000E+00  0.000E+00  0.000E+00  1.07154E+03  6.315E-01  1.000E+01  5.000E-02  1.211E+00
   1    6    8     4     3    9.7275E+00  1.2689E-01   9.6006E+00  0.000E+00  0.000E+00  0.000E+00  1.06381E+03  6.256E-01  1.000E+01  3.500E-02  1.209E+00
   1    6    8     5     1    1.0432E+01  2.2686E-01   1.0205E+01  0.000E+00  0.000E+00  0.000E+00  1.05868E+03  6.790E-01  1.542E+01  6.166E-02  1.226E+00
   1    7    7     5     2    1.0205E+01  2.7894E-01   9.9265E+00  0.000E+00  0.000E+00  0.000E+00  1.05417E+03  6.732E-01  1.519E+01  7.594E-02  1.224E+00
   1    8    7     5     3    9.9265E+00  1.9221E-01   9.7343E+00  0.000E+00  0.000E+00  0.000E+00  1.04992E+03  6.676E-01  1.497E+01  5.241E-02  1.223E+00
   1    8    6     5     4    9.7343E+00  1.3577E-01   9.5985E+00  0.000E+00  0.000E+00  0.000E+00  1.04691E+03  6.637E-01  1.482E+01  3.706E-02  1.221E+00
   1    9    6     6     1    1.3537E+01  2.3091E-01   1.3306E+01  0.000E+00  0.000E+00  0.000E+00  1.04358E+03  8.485E-01  1.200E+01  6.000E-02  1.283E+00
   1   10    7     6     2    1.3306E+01  2.3039E-01   1.3076E+01  0.000E+00  0.000E+00  0.000E+00  1.03902E+03  8.398E-01  1.200E+01  6.000E-02  1.280E+00
   1   11    7     6     3    1.3076E+01  2.2987E-01   1.2846E+01  0.000E+00  0.000E+00  0.000E+00  1.03447E+03  8.312E-01  1.200E+01  6.000E-02  1.277E+00
   1   12    7     6     4    1.2846E+01  2.2935E-01   1.2617E+01  0.000E+00  0.000E+00  0.000E+00  1.02991E+03  8.224E-01  1.200E+01  6.000E-02  1.274E+00
   1   13    7     6     5    1.2617E+01 -3.1090E-02   1.2648E+01  0.000E+00  0.000E+00  0.000E+00  1.02673E+03  8.186E-01  1.200E+01  2.400E-01 -4.318E-02
   1   14    9     7     1    1.5000E+02  1.3670E+00   1.4863E+02  0.000E+00  0.000E+00  0.000E+00  1.03987E+03  2.288E+00  5.529E+01  5.593E-01  8.147E-01
   1   13    8     7     2    1.4863E+02  1.9170E+00   1.4672E+02  0.000E+00  0.000E+00  0.000E+00  1.03478E+03  2.279E+00  5.526E+01  6.148E-01  1.039E+00
   1   13    7     7     3    1.4672E+02  1.5812E+00   1.4513E+02  0.000E+00  0.000E+00  0.000E+00  1.02969E+03  2.270E+00  5.521E+01  5.584E-01  9.439E-01
   1   13    6     8     1    1.5778E+02  9.5064E-01   1.5683E+02  0.000E+00  0.000E+00  0.000E+00  1.02474E+03  2.869E+00  4.160E+01  4.239E-01  7.475E-01
   1   13    5     8     2    1.5683E+02  2.0405E-01   1.5663E+02  0.000E+00  0.000E+00  0.000E+00  1.01849E+03  2.865E+00  4.154E+01  4.233E-01  1.607E-01
   1   13    4     8     3    1.5663E+02 -2.5429E+00   1.5917E+02  0.000E+00  0.000E+00  0.000E+00  1.01225E+03  2.873E+00  4.166E+01  4.245E+00 -1.997E-01
   1   13    3     8     4    1.5917E+02 -3.8162E+00   1.6299E+02  0.000E+00  0.000E+00  0.000E+00  1.00602E+03  2.895E+00  4.197E+01  4.277E+00 -2.974E-01
   1   13    2     8     5    1.6299E+02 -2.8421E+00   1.6583E+02  0.000E+00  0.000E+00  0.000E+00  9.99792E+02  2.917E+00  4.229E+01  4.310E+00 -2.198E-01
   1   13    1     8     6    1.6583E+02 -2.1301E+00   1.6796E+02  0.000E+00  0.000E+00  0.000E+00  9.94808E+02  2.933E+00  4.253E+01  2.600E+00 -2.730E-01
   1    8    6     9     1    2.6574E+00  0.0000E+00   2.6574E+00  0.000E+00  0.000E+00  0.000E+00  1.07972E+03  9.745E-01  4.000E+00  0.000E+00  1.325E+00
   1    8    5     9     2    2.6574E+00  0.0000E+00   2.6574E+00  0.000E+00  0.000E+00  0.000E+00  1.07922E+03  9.745E-01  4.000E+00  0.000E+00  1.325E+00



 UBDSV3 SAVING "           GW ET" ON UNIT  61 AT TIME STEP  3, STRESS PERIOD   5
 UBDSV3 SAVING "    UZF RECHARGE" ON UNIT  61 AT TIME STEP  3, STRESS PERIOD   5
 UBDSV3 SAVING " SURFACE LEAKAGE" ON UNIT  61 AT TIME STEP  3, STRESS PERIOD   5
 UBDSV3 SAVING "       HORT+DUNN" ON UNIT  61 AT TIME STEP  3, STRESS PERIOD   5
 UBDSV3 SAVING "  STORAGE CHANGE" ON UNIT  61 AT TIME STEP  3, STRESS PERIOD   5


UNSATURATED ZONE PACKAGE VOLUMETRIC BUDGET FOR  TIME STEP     3 STRESS PERIOD    5
  ------------------------------------------------------------------------------



     CUMULATIVE VOLUMES      L**3       RATES FOR THIS TIME STEP      L**3/T
     ------------------                 ------------------------

           IN:                                      IN:
           ---                                      ---
        INFILTRATION =    36437339.1038          INFILTRATION =           7.0649

          OUT:                                     OUT:
          ----                                     ----
              UZF ET =    13115064.6992                UZF ET =          22.8968
        UZF RECHARGE =       73224.0000          UZF RECHARGE =       0.0000E+00

            IN - OUT =    23249050.4045              IN - OUT =         -15.8318

          STORAGE:                                 STORAGE:
          --------                                 --------
      STORAGE CHANGE =    23249050.0969        STORAGE CHANGE =         -15.8318

 PERCENT DISCREPANCY IS DIFFERENCE BETWEEN IN-OUT MINUS CHANGE IN STORAGE
 DIVIDED BY THE AVERAGE OF IN AND OUT TIMES 100

 PERCENT DISCREPANCY =           0.00     PERCENT DISCREPANCY =           0.00






 

            AG WELLS      PERIOD    5   STEP   3
 AG WELL      1   LAYER   1   ROW     6   COL     4   RATE   -3.454169E-02
 AG WELL      2   LAYER   1   ROW     6   COL     5   RATE   -3.454169E-02
 AG WELL      3   LAYER   1   ROW     7   COL     4   RATE   -3.454169E-02
 AG WELL      4   LAYER   1   ROW     7   COL     5   RATE   -3.454169E-02
 AG WELL      5   LAYER   1   ROW     8   COL     4   RATE   -3.454169E-02
 AG WELL      6   LAYER   1   ROW     8   COL     5   RATE   -3.454169E-02
 
 

   DIVERSION SEGMENTS     PERIOD    5   STEP   3
 SEGMENT      9   RATE     2.65740    
 
 

        SW IRRIGATION     PERIOD    5   STEP   3
 SEGMENT      9   ROW     6   COL     4   RATE    0.408366    
 SEGMENT      9   ROW     6   COL     5   RATE    0.408366    
 SEGMENT      9   ROW     7   COL     4   RATE    0.408366    
 SEGMENT      9   ROW     7   COL     5   RATE    0.408366    
 SEGMENT      9   ROW     8   COL     4   RATE    0.408366    
 SEGMENT      9   ROW     8   COL     5   RATE    0.408366    
 
 

        GW IRRIGATION     PERIOD    5   STEP   3
 AG WELL      1   ROW     6   COL     4   RATE    3.454169E-02
 AG WELL      2   ROW     6   COL     5   RATE    3.454169E-02
 AG WELL      3   ROW     7   COL     4   RATE    3.454169E-02
 AG WELL      4   ROW     7   COL     5   RATE    3.454169E-02
 AG WELL      5   ROW     8   COL     4   RATE    3.454169E-02
 AG WELL      6   ROW     8   COL     5   RATE    3.454169E-02
 
1
  VOLUMETRIC BUDGET FOR AGRICULTURAL FIELDS AT  END OF TIME STEP    3, STRESS PERIOD   5
  ------------------------------------------------------------------------------

     CUMULATIVE VOLUMES      L**3       RATES FOR THIS TIME STEP      L**3/T
     ------------------                 ------------------------

           IN:                                      IN:
           ---                                      ---
               AG WELLS  =       27917.8867                 AG WELLS  =           0.2073
      DIVERSION SEGMENTS =      429760.9375        DIVERSION SEGMENTS =           2.6574
           GW IRRIGATION =           0.0000             GW IRRIGATION =           0.0000
           SW IRRIGATION =           0.0000             SW IRRIGATION =           0.0000
        SYSTEM LOSSES GW =           0.0000          SYSTEM LOSSES GW =           0.0000
        SYSTEM LOSSES SW =           0.0000          SYSTEM LOSSES SW =           0.0000

                TOTAL IN =      457678.8125                  TOTAL IN =           2.8646

          OUT:                                     OUT:
          ----                                     ----
               AG WELLS  =           0.0000                 AG WELLS  =           0.0000
      DIVERSION SEGMENTS =           0.0000        DIVERSION SEGMENTS =           0.0000
           GW IRRIGATION =       27917.8867             GW IRRIGATION =           0.2073
           SW IRRIGATION =      429769.5312             SW IRRIGATION =           2.6575
        SYSTEM LOSSES GW =           0.0000          SYSTEM LOSSES GW =           0.0000
        SYSTEM LOSSES SW =           0.0000          SYSTEM LOSSES SW =           0.0000

               TOTAL OUT =      457687.4062                 TOTAL OUT =           2.8647

                IN - OUT =          -8.5938                  IN - OUT =      -5.2929E-05

     PERCENT DISCREPANCY =          -0.00         PERCENT DISCREPANCY =          -0.00



1
  VOLUMETRIC BUDGET FOR ENTIRE MODEL AT END OF TIME STEP    3, STRESS PERIOD   5
  ------------------------------------------------------------------------------

     CUMULATIVE VOLUMES      L**3       RATES FOR THIS TIME STEP      L**3/T
     ------------------                 ------------------------

           IN:                                      IN:
           ---                                      ---
             STORAGE     =     4727140.5000               STORAGE     =           1.6311
       CONSTANT HEAD     =           0.0000         CONSTANT HEAD     =           0.0000
     HEAD DEP BOUNDS     =     2371496.0000       HEAD DEP BOUNDS     =           0.2879
      STREAM LEAKAGE     =    96419024.0000        STREAM LEAKAGE     =          11.2460
        UZF RECHARGE     =       73223.9531          UZF RECHARGE     =           0.0000
               GW ET     =           0.0000                 GW ET     =           0.0000
     SURFACE LEAKAGE     =           0.0000       SURFACE LEAKAGE     =           0.0000
           AG WELLS      =           0.0000             AG WELLS      =           0.0000

                TOTAL IN =   103590888.0000                  TOTAL IN =          13.1649

          OUT:                                     OUT:
          ----                                     ----
             STORAGE     =    17923440.0000               STORAGE     =           1.3045
       CONSTANT HEAD     =           0.0000         CONSTANT HEAD     =           0.0000
     HEAD DEP BOUNDS     =     2373956.7500       HEAD DEP BOUNDS     =           0.2898
      STREAM LEAKAGE     =    83269184.0000        STREAM LEAKAGE     =          11.3624
        UZF RECHARGE     =           0.0000          UZF RECHARGE     =           0.0000
               GW ET     =           0.0000                 GW ET     =           0.0000
     SURFACE LEAKAGE     =           0.0000       SURFACE LEAKAGE     =           0.0000
           AG WELLS      =       27917.8867             AG WELLS      =           0.2073

               TOTAL OUT =   103594496.0000                 TOTAL OUT =          13.1640

                IN - OUT =       -3608.0000                  IN - OUT =       9.6512E-04

     PERCENT DISCREPANCY =          -0.00         PERCENT DISCREPANCY =           0.01






         TIME SUMMARY AT END OF TIME STEP    3 IN STRESS PERIOD    5
                    SECONDS     MINUTES      HOURS       DAYS        YEARS
                    -----------------------------------------------------------
   TIME STEP LENGTH  87667.      1461.1      24.352      1.0147     2.77799E-03
 STRESS PERIOD TIME 2.63000E+05  4383.3      73.056      3.0440     8.33397E-03
         TOTAL TIME 8.23939E+06 1.37323E+05  2288.7      95.363     0.26109    
1
 
 SOLVING FOR HEAD 
                                                   Max.-Head-Change                         Max.-Flux-Residual
  Residual-Control   Outer-Iter.   Inner-Iter.     Column Row Layer    Maximum-Head-Change  Column Row Layer    Maximum-Flux-Residual          L2-NORM 
          0                 1           2             2   13     1      -0.4572807271E-02       4   13    1        -0.2600634439E+00      0.5270571357E+00
          0                 2           2             4    7     1      -0.5550907411E-02       5    6    1        -0.3009195924E+00      0.7335621790E+00
          0                 3           2             4    7     1       0.5721677237E-02       5    6    1         0.3160739724E+00      0.7767837750E+00
          0                 4           2             4    7     1      -0.2229118231E-03       5    6    1        -0.1265736431E-01      0.3161923810E-01
          0                 5           1             4   13     1      -0.4823131944E-05       4   13    1        -0.2916231542E-03      0.7989135660E-03

    ------------------------------------------------
       NWT REQUIRED            5 OUTER ITERATIONS 
       AND A TOTAL OF          9 INNER ITERATIONS.
    ------------------------------------------------

 OUTPUT CONTROL FOR STRESS PERIOD    5   TIME STEP    4
    PRINT BUDGET
    SAVE BUDGET
 UBDSV1 SAVING "         STORAGE" ON UNIT 102 AT TIME STEP  4, STRESS PERIOD   5
 UBDSV2 SAVING "   CONSTANT HEAD" ON UNIT 102 AT TIME STEP  4, STRESS PERIOD   5
 UBDSV1 SAVING "FLOW RIGHT FACE " ON UNIT 102 AT TIME STEP  4, STRESS PERIOD   5
 UBDSV1 SAVING "FLOW FRONT FACE " ON UNIT 102 AT TIME STEP  4, STRESS PERIOD   5

  HEAD DEP BOUNDS   PERIOD    5   STEP     4
 BOUNDARY      1   LAYER   1   ROW    13   COL     1   RATE   -0.289725    
 BOUNDARY      2   LAYER   1   ROW    14   COL     9   RATE    0.287884    



 STREAM LISTING     PERIOD      5   STEP        4

 LAYER ROW COL. STREAM  RCH.  FLOW INTO     FLOW TO   FLOW OUT OF   OVRLND.     DIRECT     STREAM       STREAM     STREAM     STREAM   STREAMBED  STREAMBED
                SEG.NO.  NO.  STRM. RCH.    AQUIFER    STRM. RCH.    RUNOFF     PRECIP       ET          HEAD       DEPTH      WIDTH   CONDCTNC.   GRADIENT

   1    1    1     1     1    1.0500E+01  1.5271E-01   1.0347E+01  0.000E+00  0.000E+00  0.000E+00  1.09396E+03  9.109E-01  8.677E+00  3.905E-02  1.304E+00
   1    2    2     1     2    1.0347E+01  2.3504E-01   1.0112E+01  0.000E+00  0.000E+00  0.000E+00  1.08896E+03  9.059E-01  8.597E+00  6.018E-02  1.302E+00
   1    3    3     1     3    1.0112E+01  1.9904E-01   9.9132E+00  0.000E+00  0.000E+00  0.000E+00  1.08332E+03  9.003E-01  8.505E+00  5.103E-02  1.300E+00
   1    3    4     1     4    9.9132E+00  1.8195E-01   9.7312E+00  0.000E+00  0.000E+00  0.000E+00  1.07830E+03  8.947E-01  8.417E+00  4.672E-02  1.298E+00
   1    4    5     2     1    7.7312E+00  2.8007E-01   7.4512E+00  0.000E+00  0.000E+00  0.000E+00  1.07252E+03  5.907E-01  1.200E+01  7.800E-02  1.197E+00
   1    5    6     2     2    7.4512E+00  2.1474E-01   7.2364E+00  0.000E+00  0.000E+00  0.000E+00  1.06709E+03  5.790E-01  1.200E+01  6.000E-02  1.193E+00
   1    6    6     2     3    7.2364E+00  2.1413E-01   7.0223E+00  0.000E+00  0.000E+00  0.000E+00  1.06236E+03  5.688E-01  1.200E+01  6.000E-02  1.190E+00
   1    7    6     2     4    7.0223E+00  2.1351E-01   6.8088E+00  0.000E+00  0.000E+00  0.000E+00  1.05763E+03  5.585E-01  1.200E+01  6.000E-02  1.186E+00
   1    8    6     2     5    6.8088E+00  2.1289E-01   6.5959E+00  0.000E+00  0.000E+00  0.000E+00  1.05291E+03  5.481E-01  1.200E+01  6.000E-02  1.183E+00
   1    3    5     3     1    2.0000E+00  2.8252E-01   1.7175E+00  0.000E+00  0.000E+00  0.000E+00  1.07555E+03  1.909E+00  9.636E+00  7.227E-02  1.955E+00
   1    3    6     3     2    1.7175E+00  2.4905E-01   1.4684E+00  0.000E+00  0.000E+00  0.000E+00  1.07264E+03  1.727E+00  8.909E+00  6.682E-02  1.864E+00
   1    3    7     3     3    1.4684E+00  1.9718E-01   1.2712E+00  0.000E+00  0.000E+00  0.000E+00  1.06987E+03  1.555E+00  8.218E+00  5.547E-02  1.777E+00
   1    4    8     3     4    1.2712E+00  2.2567E-01   1.0456E+00  0.000E+00  0.000E+00  0.000E+00  1.06682E+03  1.364E+00  7.455E+00  6.709E-02  1.682E+00
   1    5    8     3     5    1.0456E+00  1.5790E-01   8.8768E-01  0.000E+00  0.000E+00  0.000E+00  1.06362E+03  1.164E+00  6.655E+00  4.991E-02  1.582E+00
   1    6    8     3     6    8.8768E-01  5.5980E-02   8.3170E-01  0.000E+00  0.000E+00  0.000E+00  1.06158E+03  1.036E+00  6.145E+00  1.844E-02  1.518E+00
   1    5   10     4     1    1.0000E+01  9.0919E-02   9.9091E+00  0.000E+00  0.000E+00  0.000E+00  1.07836E+03  6.368E-01  1.000E+01  2.500E-02  1.212E+00
   1    5    9     4     2    9.9091E+00  1.8158E-01   9.7275E+00  0.000E+00  0.000E+00  0.000E+00  1.07154E+03  6.315E-01  1.000E+01  5.000E-02  1.211E+00
   1    6    8     4     3    9.7275E+00  1.2689E-01   9.6006E+00  0.000E+00  0.000E+00  0.000E+00  1.06381E+03  6.256E-01  1.000E+01  3.500E-02  1.209E+00
   1    6    8     5     1    1.0432E+01  2.2686E-01   1.0205E+01  0.000E+00  0.000E+00  0.000E+00  1.05868E+03  6.790E-01  1.542E+01  6.166E-02  1.226E+00
   1    7    7     5     2    1.0205E+01  2.7894E-01   9.9265E+00  0.000E+00  0.000E+00  0.000E+00  1.05417E+03  6.732E-01  1.519E+01  7.594E-02  1.224E+00
   1    8    7     5     3    9.9265E+00  1.9221E-01   9.7343E+00  0.000E+00  0.000E+00  0.000E+00  1.04992E+03  6.676E-01  1.497E+01  5.241E-02  1.223E+00
   1    8    6     5     4    9.7343E+00  1.3577E-01   9.5985E+00  0.000E+00  0.000E+00  0.000E+00  1.04691E+03  6.637E-01  1.482E+01  3.706E-02  1.221E+00
   1    9    6     6     1    1.2641E+01  2.2840E-01   1.2413E+01  0.000E+00  0.000E+00  0.000E+00  1.04353E+03  8.067E-01  1.200E+01  6.000E-02  1.269E+00
   1   10    7     6     2    1.2413E+01  2.2787E-01   1.2185E+01  0.000E+00  0.000E+00  0.000E+00  1.03898E+03  7.978E-01  1.200E+01  6.000E-02  1.266E+00
   1   11    7     6     3    1.2185E+01  2.2734E-01   1.1958E+01  0.000E+00  0.000E+00  0.000E+00  1.03443E+03  7.889E-01  1.200E+01  6.000E-02  1.263E+00
   1   12    7     6     4    1.1958E+01  2.2680E-01   1.1731E+01  0.000E+00  0.000E+00  0.000E+00  1.02987E+03  7.800E-01  1.200E+01  6.000E-02  1.260E+00
   1   13    7     6     5    1.1731E+01 -4.1128E-02   1.1772E+01  0.000E+00  0.000E+00  0.000E+00  1.02669E+03  7.763E-01  1.200E+01  2.400E-01 -5.712E-02
   1   14    9     7     1    1.5000E+02  1.3670E+00   1.4863E+02  0.000E+00  0.000E+00  0.000E+00  1.03987E+03  2.288E+00  5.529E+01  5.593E-01  8.147E-01
   1   13    8     7     2    1.4863E+02  1.9170E+00   1.4672E+02  0.000E+00  0.000E+00  0.000E+00  1.03478E+03  2.279E+00  5.526E+01  6.148E-01  1.039E+00
   1   13    7     7     3    1.4672E+02  1.5815E+00   1.4513E+02  0.000E+00  0.000E+00  0.000E+00  1.02969E+03  2.270E+00  5.521E+01  5.584E-01  9.440E-01
   1   13    6     8     1    1.5691E+02  9.4548E-01   1.5596E+02  0.000E+00  0.000E+00  0.000E+00  1.02474E+03  2.862E+00  4.149E+01  4.228E-01  7.454E-01
   1   13    5     8     2    1.5596E+02  2.0068E-01   1.5576E+02  0.000E+00  0.000E+00  0.000E+00  1.01848E+03  2.858E+00  4.144E+01  4.222E-01  1.584E-01
   1   13    4     8     3    1.5576E+02 -2.5446E+00   1.5831E+02  0.000E+00  0.000E+00  0.000E+00  1.01224E+03  2.866E+00  4.155E+01  4.234E+00 -2.003E-01
   1   13    3     8     4    1.5831E+02 -3.8167E+00   1.6212E+02  0.000E+00  0.000E+00  0.000E+00  1.00601E+03  2.887E+00  4.187E+01  4.266E+00 -2.982E-01
   1   13    2     8     5    1.6212E+02 -2.8428E+00   1.6496E+02  0.000E+00  0.000E+00  0.000E+00  9.99785E+02  2.910E+00  4.219E+01  4.299E+00 -2.204E-01
   1   13    1     8     6    1.6496E+02 -2.1355E+00   1.6710E+02  0.000E+00  0.000E+00  0.000E+00  9.94801E+02  2.926E+00  4.243E+01  2.594E+00 -2.744E-01
   1    8    6     9     1    3.5531E+00  0.0000E+00   3.5531E+00  0.000E+00  0.000E+00  0.000E+00  1.07997E+03  1.218E+00  4.000E+00  0.000E+00  1.406E+00
   1    8    5     9     2    3.5531E+00  0.0000E+00   3.5531E+00  0.000E+00  0.000E+00  0.000E+00  1.07947E+03  1.218E+00  4.000E+00  0.000E+00  1.406E+00



 UBDSV3 SAVING "           GW ET" ON UNIT  61 AT TIME STEP  4, STRESS PERIOD   5
 UBDSV3 SAVING "    UZF RECHARGE" ON UNIT  61 AT TIME STEP  4, STRESS PERIOD   5
 UBDSV3 SAVING " SURFACE LEAKAGE" ON UNIT  61 AT TIME STEP  4, STRESS PERIOD   5
 UBDSV3 SAVING "       HORT+DUNN" ON UNIT  61 AT TIME STEP  4, STRESS PERIOD   5
 UBDSV3 SAVING "  STORAGE CHANGE" ON UNIT  61 AT TIME STEP  4, STRESS PERIOD   5


UNSATURATED ZONE PACKAGE VOLUMETRIC BUDGET FOR  TIME STEP     4 STRESS PERIOD    5
  ------------------------------------------------------------------------------



     CUMULATIVE VOLUMES      L**3       RATES FOR THIS TIME STEP      L**3/T
     ------------------                 ------------------------

           IN:                                      IN:
           ---                                      ---
        INFILTRATION =    37135227.5481          INFILTRATION =           7.9607

          OUT:                                     OUT:
          ----                                     ----
              UZF ET =    14540191.0674                UZF ET =          16.2562
        UZF RECHARGE =       73224.0000          UZF RECHARGE =       0.0000E+00

            IN - OUT =    22521812.4807              IN - OUT =          -8.2955

          STORAGE:                                 STORAGE:
          --------                                 --------
      STORAGE CHANGE =    22521812.1685        STORAGE CHANGE =          -8.2955

 PERCENT DISCREPANCY IS DIFFERENCE BETWEEN IN-OUT MINUS CHANGE IN STORAGE
 DIVIDED BY THE AVERAGE OF IN AND OUT TIMES 100

 PERCENT DISCREPANCY =           0.00     PERCENT DISCREPANCY =           0.00






 

            AG WELLS      PERIOD    5   STEP   4
 AG WELL      1   LAYER   1   ROW     6   COL     4   RATE   -1.928806E-04
 AG WELL      2   LAYER   1   ROW     6   COL     5   RATE   -1.928806E-04
 AG WELL      3   LAYER   1   ROW     7   COL     4   RATE   -1.928806E-04
 AG WELL      4   LAYER   1   ROW     7   COL     5   RATE   -1.928806E-04
 AG WELL      5   LAYER   1   ROW     8   COL     4   RATE   -1.928806E-04
 AG WELL      6   LAYER   1   ROW     8   COL     5   RATE   -1.928806E-04
 
 

   DIVERSION SEGMENTS     PERIOD    5   STEP   4
 SEGMENT      9   RATE     3.55313    
 
 

        SW IRRIGATION     PERIOD    5   STEP   4
 SEGMENT      9   ROW     6   COL     4   RATE    0.592008    
 SEGMENT      9   ROW     6   COL     5   RATE    0.592008    
 SEGMENT      9   ROW     7   COL     4   RATE    0.592008    
 SEGMENT      9   ROW     7   COL     5   RATE    0.592008    
 SEGMENT      9   ROW     8   COL     4   RATE    0.592008    
 SEGMENT      9   ROW     8   COL     5   RATE    0.592008    
 
 

        GW IRRIGATION     PERIOD    5   STEP   4
 AG WELL      1   ROW     6   COL     4   RATE    1.928806E-04
 AG WELL      2   ROW     6   COL     5   RATE    1.928806E-04
 AG WELL      3   ROW     7   COL     4   RATE    1.928806E-04
 AG WELL      4   ROW     7   COL     5   RATE    1.928806E-04
 AG WELL      5   ROW     8   COL     4   RATE    1.928806E-04
 AG WELL      6   ROW     8   COL     5   RATE    1.928806E-04
 
1
  VOLUMETRIC BUDGET FOR AGRICULTURAL FIELDS AT  END OF TIME STEP    4, STRESS PERIOD   5
  ------------------------------------------------------------------------------

     CUMULATIVE VOLUMES      L**3       RATES FOR THIS TIME STEP      L**3/T
     ------------------                 ------------------------

           IN:                                      IN:
           ---                                      ---
               AG WELLS  =       28019.3418                 AG WELLS  =       1.1573E-03
      DIVERSION SEGMENTS =      741252.3125        DIVERSION SEGMENTS =           3.5531
           GW IRRIGATION =           0.0000             GW IRRIGATION =           0.0000
           SW IRRIGATION =           0.0000             SW IRRIGATION =           0.0000
        SYSTEM LOSSES GW =           0.0000          SYSTEM LOSSES GW =           0.0000
        SYSTEM LOSSES SW =           0.0000          SYSTEM LOSSES SW =           0.0000

                TOTAL IN =      769271.6250                  TOTAL IN =           3.5543

          OUT:                                     OUT:
          ----                                     ----
               AG WELLS  =           0.0000                 AG WELLS  =           0.0000
      DIVERSION SEGMENTS =           0.0000        DIVERSION SEGMENTS =           0.0000
           GW IRRIGATION =       28019.3418             GW IRRIGATION =       1.1573E-03
           SW IRRIGATION =      741267.1250             SW IRRIGATION =           3.5532
        SYSTEM LOSSES GW =           0.0000          SYSTEM LOSSES GW =           0.0000
        SYSTEM LOSSES SW =           0.0000          SYSTEM LOSSES SW =           0.0000

               TOTAL OUT =      769286.4375                 TOTAL OUT =           3.5544

                IN - OUT =         -14.8125                  IN - OUT =      -7.1049E-05

     PERCENT DISCREPANCY =          -0.00         PERCENT DISCREPANCY =          -0.00



1
  VOLUMETRIC BUDGET FOR ENTIRE MODEL AT END OF TIME STEP    4, STRESS PERIOD   5
  ------------------------------------------------------------------------------

     CUMULATIVE VOLUMES      L**3       RATES FOR THIS TIME STEP      L**3/T
     ------------------                 ------------------------

           IN:                                      IN:
           ---                                      ---
             STORAGE     =     4869615.0000               STORAGE     =           1.6252
       CONSTANT HEAD     =           0.0000         CONSTANT HEAD     =           0.0000
     HEAD DEP BOUNDS     =     2396733.7500       HEAD DEP BOUNDS     =           0.2879
      STREAM LEAKAGE     =    97403312.0000        STREAM LEAKAGE     =          11.2276
        UZF RECHARGE     =       73223.9531          UZF RECHARGE     =           0.0000
               GW ET     =           0.0000                 GW ET     =           0.0000
     SURFACE LEAKAGE     =           0.0000       SURFACE LEAKAGE     =           0.0000
           AG WELLS      =           0.0000             AG WELLS      =           0.0000

                TOTAL IN =   104742888.0000                  TOTAL IN =          13.1407

          OUT:                                     OUT:
          ----                                     ----
             STORAGE     =    18052222.0000               STORAGE     =           1.4690
       CONSTANT HEAD     =           0.0000         CONSTANT HEAD     =           0.0000
     HEAD DEP BOUNDS     =     2399356.0000       HEAD DEP BOUNDS     =           0.2897
      STREAM LEAKAGE     =    84266896.0000        STREAM LEAKAGE     =          11.3807
        UZF RECHARGE     =           0.0000          UZF RECHARGE     =           0.0000
               GW ET     =           0.0000                 GW ET     =           0.0000
     SURFACE LEAKAGE     =           0.0000       SURFACE LEAKAGE     =           0.0000
           AG WELLS      =       28019.3418             AG WELLS      =       1.1573E-03

               TOTAL OUT =   104746488.0000                 TOTAL OUT =          13.1406

                IN - OUT =       -3600.0000                  IN - OUT =       7.2479E-05

     PERCENT DISCREPANCY =          -0.00         PERCENT DISCREPANCY =           0.00






         TIME SUMMARY AT END OF TIME STEP    4 IN STRESS PERIOD    5
                    SECONDS     MINUTES      HOURS       DAYS        YEARS
                    -----------------------------------------------------------
   TIME STEP LENGTH  87667.      1461.1      24.352      1.0147     2.77799E-03
 STRESS PERIOD TIME 3.50667E+05  5844.4      97.407      4.0586     1.11120E-02
         TOTAL TIME 8.32706E+06 1.38784E+05  2313.1      96.378     0.26387    
1
 
 SOLVING FOR HEAD 
                                                   Max.-Head-Change                         Max.-Flux-Residual
  Residual-Control   Outer-Iter.   Inner-Iter.     Column Row Layer    Maximum-Head-Change  Column Row Layer    Maximum-Flux-Residual          L2-NORM 
          0                 1           2             2   13     1      -0.4146766341E-02       2   13    1        -0.2329178388E+00      0.4873845400E+00
          0                 2           2             4    7     1      -0.5574307078E-02       5    6    1        -0.3021015114E+00      0.7367073771E+00
          0                 3           2             4    7     1       0.5755859828E-02       5    6    1         0.3179581180E+00      0.7813135712E+00
          0                 4           2             4    7     1      -0.2290315689E-03       5    6    1        -0.1300451465E-01      0.3247864684E-01
          0                 5           1             4   13     1      -0.4271488912E-05       4   13    1        -0.2582697271E-03      0.5880248993E-03

    ------------------------------------------------
       NWT REQUIRED            5 OUTER ITERATIONS 
       AND A TOTAL OF          9 INNER ITERATIONS.
    ------------------------------------------------

 NO OUTPUT CONTROL FOR STRESS PERIOD    5   TIME STEP    5
 
 SOLVING FOR HEAD 
                                                   Max.-Head-Change                         Max.-Flux-Residual
  Residual-Control   Outer-Iter.   Inner-Iter.     Column Row Layer    Maximum-Head-Change  Column Row Layer    Maximum-Flux-Residual          L2-NORM 
          0                 1           2             2   13     1      -0.3751559872E-02       2   13    1        -0.2106898109E+00      0.4520285232E+00
          0                 2           2             4    7     1      -0.5595272075E-02       5    6    1        -0.3031517417E+00      0.7395540510E+00
          0                 3           2             4    7     1       0.5777357652E-02       5    6    1         0.3191393864E+00      0.7842070662E+00
          0                 4           2             4    7     1      -0.2298918465E-03       4    6    1        -0.1306951061E-01      0.3260225237E-01
          0                 5           1             4   13     1      -0.4265063587E-05       4   13    1        -0.2578631929E-03      0.5893319631E-03

    ------------------------------------------------
       NWT REQUIRED            5 OUTER ITERATIONS 
       AND A TOTAL OF          9 INNER ITERATIONS.
    ------------------------------------------------

 OUTPUT CONTROL FOR STRESS PERIOD    5   TIME STEP    6
    PRINT BUDGET
    SAVE BUDGET
 UBDSV1 SAVING "         STORAGE" ON UNIT 102 AT TIME STEP  6, STRESS PERIOD   5
 UBDSV2 SAVING "   CONSTANT HEAD" ON UNIT 102 AT TIME STEP  6, STRESS PERIOD   5
 UBDSV1 SAVING "FLOW RIGHT FACE " ON UNIT 102 AT TIME STEP  6, STRESS PERIOD   5
 UBDSV1 SAVING "FLOW FRONT FACE " ON UNIT 102 AT TIME STEP  6, STRESS PERIOD   5

  HEAD DEP BOUNDS   PERIOD    5   STEP     6
 BOUNDARY      1   LAYER   1   ROW    13   COL     1   RATE   -0.289508    
 BOUNDARY      2   LAYER   1   ROW    14   COL     9   RATE    0.287886    



 STREAM LISTING     PERIOD      5   STEP        6

 LAYER ROW COL. STREAM  RCH.  FLOW INTO     FLOW TO   FLOW OUT OF   OVRLND.     DIRECT     STREAM       STREAM     STREAM     STREAM   STREAMBED  STREAMBED
                SEG.NO.  NO.  STRM. RCH.    AQUIFER    STRM. RCH.    RUNOFF     PRECIP       ET          HEAD       DEPTH      WIDTH   CONDCTNC.   GRADIENT

   1    1    1     1     1    1.0500E+01  1.5271E-01   1.0347E+01  0.000E+00  0.000E+00  0.000E+00  1.09396E+03  9.109E-01  8.677E+00  3.905E-02  1.304E+00
   1    2    2     1     2    1.0347E+01  2.3505E-01   1.0112E+01  0.000E+00  0.000E+00  0.000E+00  1.08896E+03  9.059E-01  8.597E+00  6.018E-02  1.302E+00
   1    3    3     1     3    1.0112E+01  1.9904E-01   9.9132E+00  0.000E+00  0.000E+00  0.000E+00  1.08332E+03  9.003E-01  8.505E+00  5.103E-02  1.300E+00
   1    3    4     1     4    9.9132E+00  1.8195E-01   9.7313E+00  0.000E+00  0.000E+00  0.000E+00  1.07830E+03  8.947E-01  8.417E+00  4.672E-02  1.298E+00
   1    4    5     2     1    7.7313E+00  2.8007E-01   7.4512E+00  0.000E+00  0.000E+00  0.000E+00  1.07252E+03  5.907E-01  1.200E+01  7.800E-02  1.197E+00
   1    5    6     2     2    7.4512E+00  2.1474E-01   7.2365E+00  0.000E+00  0.000E+00  0.000E+00  1.06709E+03  5.790E-01  1.200E+01  6.000E-02  1.193E+00
   1    6    6     2     3    7.2365E+00  2.1413E-01   7.0224E+00  0.000E+00  0.000E+00  0.000E+00  1.06236E+03  5.688E-01  1.200E+01  6.000E-02  1.190E+00
   1    7    6     2     4    7.0224E+00  2.1351E-01   6.8088E+00  0.000E+00  0.000E+00  0.000E+00  1.05763E+03  5.585E-01  1.200E+01  6.000E-02  1.186E+00
   1    8    6     2     5    6.8088E+00  2.1289E-01   6.5960E+00  0.000E+00  0.000E+00  0.000E+00  1.05291E+03  5.481E-01  1.200E+01  6.000E-02  1.183E+00
   1    3    5     3     1    2.0000E+00  2.8252E-01   1.7175E+00  0.000E+00  0.000E+00  0.000E+00  1.07555E+03  1.909E+00  9.636E+00  7.227E-02  1.955E+00
   1    3    6     3     2    1.7175E+00  2.4905E-01   1.4684E+00  0.000E+00  0.000E+00  0.000E+00  1.07264E+03  1.727E+00  8.909E+00  6.682E-02  1.864E+00
   1    3    7     3     3    1.4684E+00  1.9718E-01   1.2712E+00  0.000E+00  0.000E+00  0.000E+00  1.06987E+03  1.555E+00  8.218E+00  5.547E-02  1.777E+00
   1    4    8     3     4    1.2712E+00  2.2567E-01   1.0456E+00  0.000E+00  0.000E+00  0.000E+00  1.06682E+03  1.364E+00  7.455E+00  6.709E-02  1.682E+00
   1    5    8     3     5    1.0456E+00  1.5790E-01   8.8768E-01  0.000E+00  0.000E+00  0.000E+00  1.06362E+03  1.164E+00  6.655E+00  4.991E-02  1.582E+00
   1    6    8     3     6    8.8768E-01  5.5980E-02   8.3170E-01  0.000E+00  0.000E+00  0.000E+00  1.06158E+03  1.036E+00  6.145E+00  1.844E-02  1.518E+00
   1    5   10     4     1    1.0000E+01  9.0919E-02   9.9091E+00  0.000E+00  0.000E+00  0.000E+00  1.07836E+03  6.368E-01  1.000E+01  2.500E-02  1.212E+00
   1    5    9     4     2    9.9091E+00  1.8158E-01   9.7275E+00  0.000E+00  0.000E+00  0.000E+00  1.07154E+03  6.315E-01  1.000E+01  5.000E-02  1.211E+00
   1    6    8     4     3    9.7275E+00  1.2689E-01   9.6006E+00  0.000E+00  0.000E+00  0.000E+00  1.06381E+03  6.256E-01  1.000E+01  3.500E-02  1.209E+00
   1    6    8     5     1    1.0432E+01  2.2686E-01   1.0205E+01  0.000E+00  0.000E+00  0.000E+00  1.05868E+03  6.790E-01  1.542E+01  6.166E-02  1.226E+00
   1    7    7     5     2    1.0205E+01  2.7894E-01   9.9265E+00  0.000E+00  0.000E+00  0.000E+00  1.05417E+03  6.732E-01  1.519E+01  7.594E-02  1.224E+00
   1    8    7     5     3    9.9265E+00  1.9221E-01   9.7343E+00  0.000E+00  0.000E+00  0.000E+00  1.04992E+03  6.676E-01  1.497E+01  5.241E-02  1.223E+00
   1    8    6     5     4    9.7343E+00  1.3577E-01   9.5985E+00  0.000E+00  0.000E+00  0.000E+00  1.04691E+03  6.637E-01  1.482E+01  3.706E-02  1.221E+00
   1    9    6     6     1    1.2619E+01  2.2835E-01   1.2391E+01  0.000E+00  0.000E+00  0.000E+00  1.04353E+03  8.058E-01  1.200E+01  6.000E-02  1.269E+00
   1   10    7     6     2    1.2391E+01  2.2782E-01   1.2163E+01  0.000E+00  0.000E+00  0.000E+00  1.03898E+03  7.969E-01  1.200E+01  6.000E-02  1.266E+00
   1   11    7     6     3    1.2163E+01  2.2728E-01   1.1936E+01  0.000E+00  0.000E+00  0.000E+00  1.03442E+03  7.881E-01  1.200E+01  6.000E-02  1.263E+00
   1   12    7     6     4    1.1936E+01  2.2675E-01   1.1709E+01  0.000E+00  0.000E+00  0.000E+00  1.02987E+03  7.791E-01  1.200E+01  6.000E-02  1.260E+00
   1   13    7     6     5    1.1709E+01 -4.1119E-02   1.1750E+01  0.000E+00  0.000E+00  0.000E+00  1.02668E+03  7.754E-01  1.200E+01  2.400E-01 -5.711E-02
   1   14    9     7     1    1.5000E+02  1.3671E+00   1.4863E+02  0.000E+00  0.000E+00  0.000E+00  1.03987E+03  2.288E+00  5.529E+01  5.593E-01  8.148E-01
   1   13    8     7     2    1.4863E+02  1.9169E+00   1.4672E+02  0.000E+00  0.000E+00  0.000E+00  1.03478E+03  2.279E+00  5.526E+01  6.148E-01  1.039E+00
   1   13    7     7     3    1.4672E+02  1.5820E+00   1.4513E+02  0.000E+00  0.000E+00  0.000E+00  1.02969E+03  2.270E+00  5.521E+01  5.584E-01  9.444E-01
   1   13    6     8     1    1.5688E+02  9.4612E-01   1.5594E+02  0.000E+00  0.000E+00  0.000E+00  1.02474E+03  2.861E+00  4.149E+01  4.228E-01  7.459E-01
   1   13    5     8     2    1.5594E+02  2.0120E-01   1.5574E+02  0.000E+00  0.000E+00  0.000E+00  1.01848E+03  2.857E+00  4.143E+01  4.222E-01  1.588E-01
   1   13    4     8     3    1.5574E+02 -2.5060E+00   1.5824E+02  0.000E+00  0.000E+00  0.000E+00  1.01224E+03  2.865E+00  4.155E+01  4.234E+00 -1.973E-01
   1   13    3     8     4    1.5824E+02 -3.7813E+00   1.6202E+02  0.000E+00  0.000E+00  0.000E+00  1.00601E+03  2.887E+00  4.186E+01  4.265E+00 -2.955E-01
   1   13    2     8     5    1.6202E+02 -2.8042E+00   1.6483E+02  0.000E+00  0.000E+00  0.000E+00  9.99784E+02  2.909E+00  4.218E+01  4.298E+00 -2.175E-01
   1   13    1     8     6    1.6483E+02 -2.1224E+00   1.6695E+02  0.000E+00  0.000E+00  0.000E+00  9.94800E+02  2.925E+00  4.242E+01  2.593E+00 -2.728E-01
   1    8    6     9     1    3.5750E+00  0.0000E+00   3.5750E+00  0.000E+00  0.000E+00  0.000E+00  1.07997E+03  1.222E+00  4.000E+00  0.000E+00  1.407E+00
   1    8    5     9     2    3.5750E+00  0.0000E+00   3.5750E+00  0.000E+00  0.000E+00  0.000E+00  1.07947E+03  1.222E+00  4.000E+00  0.000E+00  1.407E+00



 UBDSV3 SAVING "           GW ET" ON UNIT  61 AT TIME STEP  6, STRESS PERIOD   5
 UBDSV3 SAVING "    UZF RECHARGE" ON UNIT  61 AT TIME STEP  6, STRESS PERIOD   5
 UBDSV3 SAVING " SURFACE LEAKAGE" ON UNIT  61 AT TIME STEP  6, STRESS PERIOD   5
 UBDSV3 SAVING "       HORT+DUNN" ON UNIT  61 AT TIME STEP  6, STRESS PERIOD   5
 UBDSV3 SAVING "  STORAGE CHANGE" ON UNIT  61 AT TIME STEP  6, STRESS PERIOD   5


UNSATURATED ZONE PACKAGE VOLUMETRIC BUDGET FOR  TIME STEP     6 STRESS PERIOD    5
  ------------------------------------------------------------------------------



     CUMULATIVE VOLUMES      L**3       RATES FOR THIS TIME STEP      L**3/T
     ------------------                 ------------------------

           IN:                                      IN:
           ---                                      ---
        INFILTRATION =    38533677.4133          INFILTRATION =           7.9826

          OUT:                                     OUT:
          ----                                     ----
              UZF ET =    17387522.0928                UZF ET =          16.2401
        UZF RECHARGE =       73224.0000          UZF RECHARGE =       0.0000E+00

            IN - OUT =    21072931.3206              IN - OUT =          -8.2575

          STORAGE:                                 STORAGE:
          --------                                 --------
      STORAGE CHANGE =    21072931.0127        STORAGE CHANGE =          -8.2575

 PERCENT DISCREPANCY IS DIFFERENCE BETWEEN IN-OUT MINUS CHANGE IN STORAGE
 DIVIDED BY THE AVERAGE OF IN AND OUT TIMES 100

 PERCENT DISCREPANCY =           0.00     PERCENT DISCREPANCY =           0.00






 

            AG WELLS      PERIOD    5   STEP   6
 AG WELL      1   LAYER   1   ROW     6   COL     4   RATE     0.00000    
 AG WELL      2   LAYER   1   ROW     6   COL     5   RATE     0.00000    
 AG WELL      3   LAYER   1   ROW     7   COL     4   RATE     0.00000    
 AG WELL      4   LAYER   1   ROW     7   COL     5   RATE     0.00000    
 AG WELL      5   LAYER   1   ROW     8   COL     4   RATE     0.00000    
 AG WELL      6   LAYER   1   ROW     8   COL     5   RATE     0.00000    
 
 

   DIVERSION SEGMENTS     PERIOD    5   STEP   6
 SEGMENT      9   RATE     3.57503    
 
 

        SW IRRIGATION     PERIOD    5   STEP   6
 SEGMENT      9   ROW     6   COL     4   RATE    0.595849    
 SEGMENT      9   ROW     6   COL     5   RATE    0.595849    
 SEGMENT      9   ROW     7   COL     4   RATE    0.595849    
 SEGMENT      9   ROW     7   COL     5   RATE    0.595849    
 SEGMENT      9   ROW     8   COL     4   RATE    0.595849    
 SEGMENT      9   ROW     8   COL     5   RATE    0.595849    
 
 

        GW IRRIGATION     PERIOD    5   STEP   6
 AG WELL      1   ROW     6   COL     4   RATE     0.00000    
 AG WELL      2   ROW     6   COL     5   RATE     0.00000    
 AG WELL      3   ROW     7   COL     4   RATE     0.00000    
 AG WELL      4   ROW     7   COL     5   RATE     0.00000    
 AG WELL      5   ROW     8   COL     4   RATE     0.00000    
 AG WELL      6   ROW     8   COL     5   RATE     0.00000    
 
1
  VOLUMETRIC BUDGET FOR AGRICULTURAL FIELDS AT  END OF TIME STEP    6, STRESS PERIOD   5
  ------------------------------------------------------------------------------

     CUMULATIVE VOLUMES      L**3       RATES FOR THIS TIME STEP      L**3/T
     ------------------                 ------------------------

           IN:                                      IN:
           ---                                      ---
               AG WELLS  =       28019.3418                 AG WELLS  =           0.0000
      DIVERSION SEGMENTS =     1366908.0000        DIVERSION SEGMENTS =           3.5750
           GW IRRIGATION =           0.0000             GW IRRIGATION =           0.0000
           SW IRRIGATION =           0.0000             SW IRRIGATION =           0.0000
        SYSTEM LOSSES GW =           0.0000          SYSTEM LOSSES GW =           0.0000
        SYSTEM LOSSES SW =           0.0000          SYSTEM LOSSES SW =           0.0000

                TOTAL IN =     1394927.3750                  TOTAL IN =           3.5750

          OUT:                                     OUT:
          ----                                     ----
               AG WELLS  =           0.0000                 AG WELLS  =           0.0000
      DIVERSION SEGMENTS =           0.0000        DIVERSION SEGMENTS =           0.0000
           GW IRRIGATION =       28019.3418             GW IRRIGATION =           0.0000
           SW IRRIGATION =     1366935.2500             SW IRRIGATION =           3.5751
        SYSTEM LOSSES GW =           0.0000          SYSTEM LOSSES GW =           0.0000
        SYSTEM LOSSES SW =           0.0000          SYSTEM LOSSES SW =           0.0000

               TOTAL OUT =     1394954.6250                 TOTAL OUT =           3.5751

                IN - OUT =         -27.2500                  IN - OUT =      -7.1287E-05

     PERCENT DISCREPANCY =          -0.00         PERCENT DISCREPANCY =          -0.00



1
  VOLUMETRIC BUDGET FOR ENTIRE MODEL AT END OF TIME STEP    6, STRESS PERIOD   5
  ------------------------------------------------------------------------------

     CUMULATIVE VOLUMES      L**3       RATES FOR THIS TIME STEP      L**3/T
     ------------------                 ------------------------

           IN:                                      IN:
           ---                                      ---
             STORAGE     =     5134480.0000               STORAGE     =           1.4745
       CONSTANT HEAD     =           0.0000         CONSTANT HEAD     =           0.0000
     HEAD DEP BOUNDS     =     2447209.7500       HEAD DEP BOUNDS     =           0.2879
      STREAM LEAKAGE     =    99372072.0000        STREAM LEAKAGE     =          11.2290
        UZF RECHARGE     =       73223.9531          UZF RECHARGE     =           0.0000
               GW ET     =           0.0000                 GW ET     =           0.0000
     SURFACE LEAKAGE     =           0.0000       SURFACE LEAKAGE     =           0.0000
           AG WELLS      =           0.0000             AG WELLS      =           0.0000

                TOTAL IN =   107026984.0000                  TOTAL IN =          12.9913

          OUT:                                     OUT:
          ----                                     ----
             STORAGE     =    18306870.0000               STORAGE     =           1.4467
       CONSTANT HEAD     =           0.0000         CONSTANT HEAD     =           0.0000
     HEAD DEP BOUNDS     =     2450125.7500       HEAD DEP BOUNDS     =           0.2895
      STREAM LEAKAGE     =    86245568.0000        STREAM LEAKAGE     =          11.2551
        UZF RECHARGE     =           0.0000          UZF RECHARGE     =           0.0000
               GW ET     =           0.0000                 GW ET     =           0.0000
     SURFACE LEAKAGE     =           0.0000       SURFACE LEAKAGE     =           0.0000
           AG WELLS      =       28019.3418             AG WELLS      =           0.0000

               TOTAL OUT =   107030576.0000                 TOTAL OUT =          12.9913

                IN - OUT =       -3592.0000                  IN - OUT =       5.7220E-05

     PERCENT DISCREPANCY =          -0.00         PERCENT DISCREPANCY =           0.00






         TIME SUMMARY AT END OF TIME STEP    6 IN STRESS PERIOD    5
                    SECONDS     MINUTES      HOURS       DAYS        YEARS
                    -----------------------------------------------------------
   TIME STEP LENGTH  87667.      1461.1      24.352      1.0147     2.77799E-03
 STRESS PERIOD TIME 5.26000E+05  8766.7      146.11      6.0880     1.66679E-02
         TOTAL TIME 8.50239E+06 1.41707E+05  2361.8      98.407     0.26942    
1
 
 SOLVING FOR HEAD 
                                                   Max.-Head-Change                         Max.-Flux-Residual
  Residual-Control   Outer-Iter.   Inner-Iter.     Column Row Layer    Maximum-Head-Change  Column Row Layer    Maximum-Flux-Residual          L2-NORM 
          0                 1           2             2   13     1      -0.3384937710E-02       2   13    1        -0.1900712599E+00      0.4206464533E+00
          0                 2           2             4    7     1      -0.5609599036E-02       5    6    1        -0.3038527701E+00      0.7415266357E+00
          0                 3           2             4    7     1       0.5791711773E-02       5    6    1         0.3199267812E+00      0.7861344119E+00
          0                 4           2             4    7     1      -0.2304027176E-03       4    6    1        -0.1311945651E-01      0.3267667356E-01
          0                 5           1             4   13     1      -0.4254474707E-05       4   13    1        -0.2572274179E-03      0.5929357171E-03

    ------------------------------------------------
       NWT REQUIRED            5 OUTER ITERATIONS 
       AND A TOTAL OF          9 INNER ITERATIONS.
    ------------------------------------------------

 OUTPUT CONTROL FOR STRESS PERIOD    5   TIME STEP    7
    PRINT BUDGET
    SAVE BUDGET
 UBDSV1 SAVING "         STORAGE" ON UNIT 102 AT TIME STEP  7, STRESS PERIOD   5
 UBDSV2 SAVING "   CONSTANT HEAD" ON UNIT 102 AT TIME STEP  7, STRESS PERIOD   5
 UBDSV1 SAVING "FLOW RIGHT FACE " ON UNIT 102 AT TIME STEP  7, STRESS PERIOD   5
 UBDSV1 SAVING "FLOW FRONT FACE " ON UNIT 102 AT TIME STEP  7, STRESS PERIOD   5

  HEAD DEP BOUNDS   PERIOD    5   STEP     7
 BOUNDARY      1   LAYER   1   ROW    13   COL     1   RATE   -0.289406    
 BOUNDARY      2   LAYER   1   ROW    14   COL     9   RATE    0.287887    



 STREAM LISTING     PERIOD      5   STEP        7

 LAYER ROW COL. STREAM  RCH.  FLOW INTO     FLOW TO   FLOW OUT OF   OVRLND.     DIRECT     STREAM       STREAM     STREAM     STREAM   STREAMBED  STREAMBED
                SEG.NO.  NO.  STRM. RCH.    AQUIFER    STRM. RCH.    RUNOFF     PRECIP       ET          HEAD       DEPTH      WIDTH   CONDCTNC.   GRADIENT

   1    1    1     1     1    1.0500E+01  1.5271E-01   1.0347E+01  0.000E+00  0.000E+00  0.000E+00  1.09396E+03  9.109E-01  8.677E+00  3.905E-02  1.304E+00
   1    2    2     1     2    1.0347E+01  2.3505E-01   1.0112E+01  0.000E+00  0.000E+00  0.000E+00  1.08896E+03  9.059E-01  8.597E+00  6.018E-02  1.302E+00
   1    3    3     1     3    1.0112E+01  1.9904E-01   9.9132E+00  0.000E+00  0.000E+00  0.000E+00  1.08332E+03  9.003E-01  8.505E+00  5.103E-02  1.300E+00
   1    3    4     1     4    9.9132E+00  1.8195E-01   9.7313E+00  0.000E+00  0.000E+00  0.000E+00  1.07830E+03  8.947E-01  8.417E+00  4.672E-02  1.298E+00
   1    4    5     2     1    7.7313E+00  2.8007E-01   7.4512E+00  0.000E+00  0.000E+00  0.000E+00  1.07252E+03  5.907E-01  1.200E+01  7.800E-02  1.197E+00
   1    5    6     2     2    7.4512E+00  2.1474E-01   7.2365E+00  0.000E+00  0.000E+00  0.000E+00  1.06709E+03  5.790E-01  1.200E+01  6.000E-02  1.193E+00
   1    6    6     2     3    7.2365E+00  2.1413E-01   7.0224E+00  0.000E+00  0.000E+00  0.000E+00  1.06236E+03  5.688E-01  1.200E+01  6.000E-02  1.190E+00
   1    7    6     2     4    7.0224E+00  2.1351E-01   6.8088E+00  0.000E+00  0.000E+00  0.000E+00  1.05763E+03  5.585E-01  1.200E+01  6.000E-02  1.186E+00
   1    8    6     2     5    6.8088E+00  2.1289E-01   6.5960E+00  0.000E+00  0.000E+00  0.000E+00  1.05291E+03  5.481E-01  1.200E+01  6.000E-02  1.183E+00
   1    3    5     3     1    2.0000E+00  2.8252E-01   1.7175E+00  0.000E+00  0.000E+00  0.000E+00  1.07555E+03  1.909E+00  9.636E+00  7.227E-02  1.955E+00
   1    3    6     3     2    1.7175E+00  2.4905E-01   1.4684E+00  0.000E+00  0.000E+00  0.000E+00  1.07264E+03  1.727E+00  8.909E+00  6.682E-02  1.864E+00
   1    3    7     3     3    1.4684E+00  1.9718E-01   1.2712E+00  0.000E+00  0.000E+00  0.000E+00  1.06987E+03  1.555E+00  8.218E+00  5.547E-02  1.777E+00
   1    4    8     3     4    1.2712E+00  2.2567E-01   1.0456E+00  0.000E+00  0.000E+00  0.000E+00  1.06682E+03  1.364E+00  7.455E+00  6.709E-02  1.682E+00
   1    5    8     3     5    1.0456E+00  1.5790E-01   8.8768E-01  0.000E+00  0.000E+00  0.000E+00  1.06362E+03  1.164E+00  6.655E+00  4.991E-02  1.582E+00
   1    6    8     3     6    8.8768E-01  5.5980E-02   8.3170E-01  0.000E+00  0.000E+00  0.000E+00  1.06158E+03  1.036E+00  6.145E+00  1.844E-02  1.518E+00
   1    5   10     4     1    1.0000E+01  9.0919E-02   9.9091E+00  0.000E+00  0.000E+00  0.000E+00  1.07836E+03  6.368E-01  1.000E+01  2.500E-02  1.212E+00
   1    5    9     4     2    9.9091E+00  1.8158E-01   9.7275E+00  0.000E+00  0.000E+00  0.000E+00  1.07154E+03  6.315E-01  1.000E+01  5.000E-02  1.211E+00
   1    6    8     4     3    9.7275E+00  1.2689E-01   9.6006E+00  0.000E+00  0.000E+00  0.000E+00  1.06381E+03  6.256E-01  1.000E+01  3.500E-02  1.209E+00
   1    6    8     5     1    1.0432E+01  2.2686E-01   1.0205E+01  0.000E+00  0.000E+00  0.000E+00  1.05868E+03  6.790E-01  1.542E+01  6.166E-02  1.226E+00
   1    7    7     5     2    1.0205E+01  2.7894E-01   9.9265E+00  0.000E+00  0.000E+00  0.000E+00  1.05417E+03  6.732E-01  1.519E+01  7.594E-02  1.224E+00
   1    8    7     5     3    9.9265E+00  1.9221E-01   9.7343E+00  0.000E+00  0.000E+00  0.000E+00  1.04992E+03  6.676E-01  1.497E+01  5.241E-02  1.223E+00
   1    8    6     5     4    9.7343E+00  1.3577E-01   9.5985E+00  0.000E+00  0.000E+00  0.000E+00  1.04691E+03  6.637E-01  1.482E+01  3.706E-02  1.221E+00
   1    9    6     6     1    1.2610E+01  2.2833E-01   1.2382E+01  0.000E+00  0.000E+00  0.000E+00  1.04353E+03  8.054E-01  1.200E+01  6.000E-02  1.268E+00
   1   10    7     6     2    1.2382E+01  2.2780E-01   1.2154E+01  0.000E+00  0.000E+00  0.000E+00  1.03898E+03  7.966E-01  1.200E+01  6.000E-02  1.266E+00
   1   11    7     6     3    1.2154E+01  2.2726E-01   1.1927E+01  0.000E+00  0.000E+00  0.000E+00  1.03442E+03  7.877E-01  1.200E+01  6.000E-02  1.263E+00
   1   12    7     6     4    1.1927E+01  2.2672E-01   1.1700E+01  0.000E+00  0.000E+00  0.000E+00  1.02987E+03  7.787E-01  1.200E+01  6.000E-02  1.260E+00
   1   13    7     6     5    1.1700E+01 -4.1097E-02   1.1741E+01  0.000E+00  0.000E+00  0.000E+00  1.02668E+03  7.751E-01  1.200E+01  2.400E-01 -5.708E-02
   1   14    9     7     1    1.5000E+02  1.3671E+00   1.4863E+02  0.000E+00  0.000E+00  0.000E+00  1.03987E+03  2.288E+00  5.529E+01  5.593E-01  8.148E-01
   1   13    8     7     2    1.4863E+02  1.9168E+00   1.4672E+02  0.000E+00  0.000E+00  0.000E+00  1.03478E+03  2.279E+00  5.526E+01  6.148E-01  1.039E+00
   1   13    7     7     3    1.4672E+02  1.5823E+00   1.4513E+02  0.000E+00  0.000E+00  0.000E+00  1.02969E+03  2.270E+00  5.521E+01  5.584E-01  9.445E-01
   1   13    6     8     1    1.5688E+02  9.4644E-01   1.5593E+02  0.000E+00  0.000E+00  0.000E+00  1.02474E+03  2.861E+00  4.149E+01  4.228E-01  7.462E-01
   1   13    5     8     2    1.5593E+02  2.0148E-01   1.5573E+02  0.000E+00  0.000E+00  0.000E+00  1.01848E+03  2.857E+00  4.143E+01  4.222E-01  1.591E-01
   1   13    4     8     3    1.5573E+02 -2.4893E+00   1.5822E+02  0.000E+00  0.000E+00  0.000E+00  1.01224E+03  2.865E+00  4.155E+01  4.234E+00 -1.960E-01
   1   13    3     8     4    1.5822E+02 -3.7656E+00   1.6198E+02  0.000E+00  0.000E+00  0.000E+00  1.00601E+03  2.887E+00  4.185E+01  4.265E+00 -2.943E-01
   1   13    2     8     5    1.6198E+02 -2.7869E+00   1.6477E+02  0.000E+00  0.000E+00  0.000E+00  9.99784E+02  2.909E+00  4.217E+01  4.298E+00 -2.162E-01
   1   13    1     8     6    1.6477E+02 -2.1162E+00   1.6689E+02  0.000E+00  0.000E+00  0.000E+00  9.94800E+02  2.925E+00  4.241E+01  2.593E+00 -2.720E-01
   1    8    6     9     1    3.5843E+00  0.0000E+00   3.5843E+00  0.000E+00  0.000E+00  0.000E+00  1.07997E+03  1.224E+00  4.000E+00  0.000E+00  1.408E+00
   1    8    5     9     2    3.5843E+00  0.0000E+00   3.5843E+00  0.000E+00  0.000E+00  0.000E+00  1.07947E+03  1.224E+00  4.000E+00  0.000E+00  1.408E+00



 UBDSV3 SAVING "           GW ET" ON UNIT  61 AT TIME STEP  7, STRESS PERIOD   5
 UBDSV3 SAVING "    UZF RECHARGE" ON UNIT  61 AT TIME STEP  7, STRESS PERIOD   5
 UBDSV3 SAVING " SURFACE LEAKAGE" ON UNIT  61 AT TIME STEP  7, STRESS PERIOD   5
 UBDSV3 SAVING "       HORT+DUNN" ON UNIT  61 AT TIME STEP  7, STRESS PERIOD   5
 UBDSV3 SAVING "  STORAGE CHANGE" ON UNIT  61 AT TIME STEP  7, STRESS PERIOD   5


UNSATURATED ZONE PACKAGE VOLUMETRIC BUDGET FOR  TIME STEP     7 STRESS PERIOD    5
  ------------------------------------------------------------------------------



     CUMULATIVE VOLUMES      L**3       RATES FOR THIS TIME STEP      L**3/T
     ------------------                 ------------------------

           IN:                                      IN:
           ---                                      ---
        INFILTRATION =    39234299.1038          INFILTRATION =           7.9919

          OUT:                                     OUT:
          ----                                     ----
              UZF ET =    18803208.8320                UZF ET =          16.1485
        UZF RECHARGE =       73224.0000          UZF RECHARGE =       0.0000E+00

            IN - OUT =    20357866.2717              IN - OUT =          -8.1566

          STORAGE:                                 STORAGE:
          --------                                 --------
      STORAGE CHANGE =    20357865.9551        STORAGE CHANGE =          -8.1566

 PERCENT DISCREPANCY IS DIFFERENCE BETWEEN IN-OUT MINUS CHANGE IN STORAGE
 DIVIDED BY THE AVERAGE OF IN AND OUT TIMES 100

 PERCENT DISCREPANCY =           0.00     PERCENT DISCREPANCY =           0.00






 

            AG WELLS      PERIOD    5   STEP   7
 AG WELL      1   LAYER   1   ROW     6   COL     4   RATE   -1.033147E-05
 AG WELL      2   LAYER   1   ROW     6   COL     5   RATE   -1.033147E-05
 AG WELL      3   LAYER   1   ROW     7   COL     4   RATE   -1.033147E-05
 AG WELL      4   LAYER   1   ROW     7   COL     5   RATE   -1.033147E-05
 AG WELL      5   LAYER   1   ROW     8   COL     4   RATE   -1.033147E-05
 AG WELL      6   LAYER   1   ROW     8   COL     5   RATE   -1.033147E-05
 
 

   DIVERSION SEGMENTS     PERIOD    5   STEP   7
 SEGMENT      9   RATE     3.58431    
 
 

        SW IRRIGATION     PERIOD    5   STEP   7
 SEGMENT      9   ROW     6   COL     4   RATE    0.597387    
 SEGMENT      9   ROW     6   COL     5   RATE    0.597387    
 SEGMENT      9   ROW     7   COL     4   RATE    0.597387    
 SEGMENT      9   ROW     7   COL     5   RATE    0.597387    
 SEGMENT      9   ROW     8   COL     4   RATE    0.597387    
 SEGMENT      9   ROW     8   COL     5   RATE    0.597387    
 
 

        GW IRRIGATION     PERIOD    5   STEP   7
 AG WELL      1   ROW     6   COL     4   RATE    1.033147E-05
 AG WELL      2   ROW     6   COL     5   RATE    1.033147E-05
 AG WELL      3   ROW     7   COL     4   RATE    1.033147E-05
 AG WELL      4   ROW     7   COL     5   RATE    1.033147E-05
 AG WELL      5   ROW     8   COL     4   RATE    1.033147E-05
 AG WELL      6   ROW     8   COL     5   RATE    1.033147E-05
 
1
  VOLUMETRIC BUDGET FOR AGRICULTURAL FIELDS AT  END OF TIME STEP    7, STRESS PERIOD   5
  ------------------------------------------------------------------------------

     CUMULATIVE VOLUMES      L**3       RATES FOR THIS TIME STEP      L**3/T
     ------------------                 ------------------------

           IN:                                      IN:
           ---                                      ---
               AG WELLS  =       28024.7754                 AG WELLS  =       6.1989E-05
      DIVERSION SEGMENTS =     1681132.6250        DIVERSION SEGMENTS =           3.5843
           GW IRRIGATION =           0.0000             GW IRRIGATION =           0.0000
           SW IRRIGATION =           0.0000             SW IRRIGATION =           0.0000
        SYSTEM LOSSES GW =           0.0000          SYSTEM LOSSES GW =           0.0000
        SYSTEM LOSSES SW =           0.0000          SYSTEM LOSSES SW =           0.0000

                TOTAL IN =     1709157.3750                  TOTAL IN =           3.5844

          OUT:                                     OUT:
          ----                                     ----
               AG WELLS  =           0.0000                 AG WELLS  =           0.0000
      DIVERSION SEGMENTS =           0.0000        DIVERSION SEGMENTS =           0.0000
           GW IRRIGATION =       28024.7754             GW IRRIGATION =       6.1989E-05
           SW IRRIGATION =     1681166.1250             SW IRRIGATION =           3.5844
        SYSTEM LOSSES GW =           0.0000          SYSTEM LOSSES GW =           0.0000
        SYSTEM LOSSES SW =           0.0000          SYSTEM LOSSES SW =           0.0000

               TOTAL OUT =     1709190.8750                 TOTAL OUT =           3.5844

                IN - OUT =         -33.5000                  IN - OUT =      -7.1764E-05

     PERCENT DISCREPANCY =          -0.00         PERCENT DISCREPANCY =          -0.00



1
  VOLUMETRIC BUDGET FOR ENTIRE MODEL AT END OF TIME STEP    7, STRESS PERIOD   5
  ------------------------------------------------------------------------------

     CUMULATIVE VOLUMES      L**3       RATES FOR THIS TIME STEP      L**3/T
     ------------------                 ------------------------

           IN:                                      IN:
           ---                                      ---
             STORAGE     =     5257823.5000               STORAGE     =           1.4070
       CONSTANT HEAD     =           0.0000         CONSTANT HEAD     =           0.0000
     HEAD DEP BOUNDS     =     2472447.7500       HEAD DEP BOUNDS     =           0.2879
      STREAM LEAKAGE     =   100356544.0000        STREAM LEAKAGE     =          11.2297
        UZF RECHARGE     =       73223.9531          UZF RECHARGE     =           0.0000
               GW ET     =           0.0000                 GW ET     =           0.0000
     SURFACE LEAKAGE     =           0.0000       SURFACE LEAKAGE     =           0.0000
           AG WELLS      =           0.0000             AG WELLS      =           0.0000

                TOTAL IN =   108160040.0000                  TOTAL IN =          12.9246

          OUT:                                     OUT:
          ----                                     ----
             STORAGE     =    18432756.0000               STORAGE     =           1.4360
       CONSTANT HEAD     =           0.0000         CONSTANT HEAD     =           0.0000
     HEAD DEP BOUNDS     =     2475497.0000       HEAD DEP BOUNDS     =           0.2894
      STREAM LEAKAGE     =    87227352.0000        STREAM LEAKAGE     =          11.1991
        UZF RECHARGE     =           0.0000          UZF RECHARGE     =           0.0000
               GW ET     =           0.0000                 GW ET     =           0.0000
     SURFACE LEAKAGE     =           0.0000       SURFACE LEAKAGE     =           0.0000
           AG WELLS      =       28024.7754             AG WELLS      =       6.1989E-05

               TOTAL OUT =   108163624.0000                 TOTAL OUT =          12.9245

                IN - OUT =       -3584.0000                  IN - OUT =       5.7220E-05

     PERCENT DISCREPANCY =          -0.00         PERCENT DISCREPANCY =           0.00






         TIME SUMMARY AT END OF TIME STEP    7 IN STRESS PERIOD    5
                    SECONDS     MINUTES      HOURS       DAYS        YEARS
                    -----------------------------------------------------------
   TIME STEP LENGTH  87667.      1461.1      24.352      1.0147     2.77799E-03
 STRESS PERIOD TIME 6.13667E+05  10228.      170.46      7.1026     1.94459E-02
         TOTAL TIME 8.59006E+06 1.43168E+05  2386.1      99.422     0.27220    
1
 
 SOLVING FOR HEAD 
                                                   Max.-Head-Change                         Max.-Flux-Residual
  Residual-Control   Outer-Iter.   Inner-Iter.     Column Row Layer    Maximum-Head-Change  Column Row Layer    Maximum-Flux-Residual          L2-NORM 
          0                 1           2             2   13     1      -0.3044793314E-02       2   13    1        -0.1709433260E+00      0.3929363037E+00
          0                 2           2             4    7     1      -0.5615711348E-02       5    6    1        -0.3041126418E+00      0.7424291704E+00
          0                 3           2             4    7     1       0.5798086078E-02       5    6    1         0.3202736322E+00      0.7869816369E+00
          0                 4           2             4    7     1      -0.2307262838E-03       4    6    1        -0.1315872865E-01      0.3272476508E-01
          0                 5           1             4   13     1      -0.4217949986E-05       4   13    1        -0.2549820683E-03      0.5870576435E-03

    ------------------------------------------------
       NWT REQUIRED            5 OUTER ITERATIONS 
       AND A TOTAL OF          9 INNER ITERATIONS.
    ------------------------------------------------

 OUTPUT CONTROL FOR STRESS PERIOD    5   TIME STEP    8
    PRINT BUDGET
    SAVE BUDGET
 UBDSV1 SAVING "         STORAGE" ON UNIT 102 AT TIME STEP  8, STRESS PERIOD   5
 UBDSV2 SAVING "   CONSTANT HEAD" ON UNIT 102 AT TIME STEP  8, STRESS PERIOD   5
 UBDSV1 SAVING "FLOW RIGHT FACE " ON UNIT 102 AT TIME STEP  8, STRESS PERIOD   5
 UBDSV1 SAVING "FLOW FRONT FACE " ON UNIT 102 AT TIME STEP  8, STRESS PERIOD   5

  HEAD DEP BOUNDS   PERIOD    5   STEP     8
 BOUNDARY      1   LAYER   1   ROW    13   COL     1   RATE   -0.289307    
 BOUNDARY      2   LAYER   1   ROW    14   COL     9   RATE    0.287888    



 STREAM LISTING     PERIOD      5   STEP        8

 LAYER ROW COL. STREAM  RCH.  FLOW INTO     FLOW TO   FLOW OUT OF   OVRLND.     DIRECT     STREAM       STREAM     STREAM     STREAM   STREAMBED  STREAMBED
                SEG.NO.  NO.  STRM. RCH.    AQUIFER    STRM. RCH.    RUNOFF     PRECIP       ET          HEAD       DEPTH      WIDTH   CONDCTNC.   GRADIENT

   1    1    1     1     1    1.0500E+01  1.5271E-01   1.0347E+01  0.000E+00  0.000E+00  0.000E+00  1.09396E+03  9.109E-01  8.677E+00  3.905E-02  1.304E+00
   1    2    2     1     2    1.0347E+01  2.3505E-01   1.0112E+01  0.000E+00  0.000E+00  0.000E+00  1.08896E+03  9.059E-01  8.597E+00  6.018E-02  1.302E+00
   1    3    3     1     3    1.0112E+01  1.9904E-01   9.9132E+00  0.000E+00  0.000E+00  0.000E+00  1.08332E+03  9.003E-01  8.505E+00  5.103E-02  1.300E+00
   1    3    4     1     4    9.9132E+00  1.8195E-01   9.7313E+00  0.000E+00  0.000E+00  0.000E+00  1.07830E+03  8.947E-01  8.417E+00  4.672E-02  1.298E+00
   1    4    5     2     1    7.7313E+00  2.8007E-01   7.4512E+00  0.000E+00  0.000E+00  0.000E+00  1.07252E+03  5.907E-01  1.200E+01  7.800E-02  1.197E+00
   1    5    6     2     2    7.4512E+00  2.1474E-01   7.2365E+00  0.000E+00  0.000E+00  0.000E+00  1.06709E+03  5.790E-01  1.200E+01  6.000E-02  1.193E+00
   1    6    6     2     3    7.2365E+00  2.1413E-01   7.0224E+00  0.000E+00  0.000E+00  0.000E+00  1.06236E+03  5.688E-01  1.200E+01  6.000E-02  1.190E+00
   1    7    6     2     4    7.0224E+00  2.1351E-01   6.8088E+00  0.000E+00  0.000E+00  0.000E+00  1.05763E+03  5.585E-01  1.200E+01  6.000E-02  1.186E+00
   1    8    6     2     5    6.8088E+00  2.1289E-01   6.5960E+00  0.000E+00  0.000E+00  0.000E+00  1.05291E+03  5.481E-01  1.200E+01  6.000E-02  1.183E+00
   1    3    5     3     1    2.0000E+00  2.8252E-01   1.7175E+00  0.000E+00  0.000E+00  0.000E+00  1.07555E+03  1.909E+00  9.636E+00  7.227E-02  1.955E+00
   1    3    6     3     2    1.7175E+00  2.4905E-01   1.4684E+00  0.000E+00  0.000E+00  0.000E+00  1.07264E+03  1.727E+00  8.909E+00  6.682E-02  1.864E+00
   1    3    7     3     3    1.4684E+00  1.9718E-01   1.2712E+00  0.000E+00  0.000E+00  0.000E+00  1.06987E+03  1.555E+00  8.218E+00  5.547E-02  1.777E+00
   1    4    8     3     4    1.2712E+00  2.2567E-01   1.0456E+00  0.000E+00  0.000E+00  0.000E+00  1.06682E+03  1.364E+00  7.455E+00  6.709E-02  1.682E+00
   1    5    8     3     5    1.0456E+00  1.5790E-01   8.8768E-01  0.000E+00  0.000E+00  0.000E+00  1.06362E+03  1.164E+00  6.655E+00  4.991E-02  1.582E+00
   1    6    8     3     6    8.8768E-01  5.5980E-02   8.3170E-01  0.000E+00  0.000E+00  0.000E+00  1.06158E+03  1.036E+00  6.145E+00  1.844E-02  1.518E+00
   1    5   10     4     1    1.0000E+01  9.0919E-02   9.9091E+00  0.000E+00  0.000E+00  0.000E+00  1.07836E+03  6.368E-01  1.000E+01  2.500E-02  1.212E+00
   1    5    9     4     2    9.9091E+00  1.8158E-01   9.7275E+00  0.000E+00  0.000E+00  0.000E+00  1.07154E+03  6.315E-01  1.000E+01  5.000E-02  1.211E+00
   1    6    8     4     3    9.7275E+00  1.2689E-01   9.6006E+00  0.000E+00  0.000E+00  0.000E+00  1.06381E+03  6.256E-01  1.000E+01  3.500E-02  1.209E+00
   1    6    8     5     1    1.0432E+01  2.2686E-01   1.0205E+01  0.000E+00  0.000E+00  0.000E+00  1.05868E+03  6.790E-01  1.542E+01  6.166E-02  1.226E+00
   1    7    7     5     2    1.0205E+01  2.7894E-01   9.9265E+00  0.000E+00  0.000E+00  0.000E+00  1.05417E+03  6.732E-01  1.519E+01  7.594E-02  1.224E+00
   1    8    7     5     3    9.9265E+00  1.9221E-01   9.7343E+00  0.000E+00  0.000E+00  0.000E+00  1.04992E+03  6.676E-01  1.497E+01  5.241E-02  1.223E+00
   1    8    6     5     4    9.7343E+00  1.3577E-01   9.5985E+00  0.000E+00  0.000E+00  0.000E+00  1.04691E+03  6.637E-01  1.482E+01  3.706E-02  1.221E+00
   1    9    6     6     1    1.2607E+01  2.2832E-01   1.2378E+01  0.000E+00  0.000E+00  0.000E+00  1.04353E+03  8.053E-01  1.200E+01  6.000E-02  1.268E+00
   1   10    7     6     2    1.2378E+01  2.2779E-01   1.2151E+01  0.000E+00  0.000E+00  0.000E+00  1.03898E+03  7.965E-01  1.200E+01  6.000E-02  1.265E+00
   1   11    7     6     3    1.2151E+01  2.2725E-01   1.1923E+01  0.000E+00  0.000E+00  0.000E+00  1.03442E+03  7.876E-01  1.200E+01  6.000E-02  1.263E+00
   1   12    7     6     4    1.1923E+01  2.2672E-01   1.1697E+01  0.000E+00  0.000E+00  0.000E+00  1.02987E+03  7.786E-01  1.200E+01  6.000E-02  1.260E+00
   1   13    7     6     5    1.1697E+01 -4.1023E-02   1.1738E+01  0.000E+00  0.000E+00  0.000E+00  1.02668E+03  7.749E-01  1.200E+01  2.400E-01 -5.698E-02
   1   14    9     7     1    1.5000E+02  1.3671E+00   1.4863E+02  0.000E+00  0.000E+00  0.000E+00  1.03987E+03  2.288E+00  5.529E+01  5.593E-01  8.148E-01
   1   13    8     7     2    1.4863E+02  1.9168E+00   1.4672E+02  0.000E+00  0.000E+00  0.000E+00  1.03478E+03  2.279E+00  5.526E+01  6.148E-01  1.039E+00
   1   13    7     7     3    1.4672E+02  1.5825E+00   1.4513E+02  0.000E+00  0.000E+00  0.000E+00  1.02969E+03  2.270E+00  5.521E+01  5.584E-01  9.447E-01
   1   13    6     8     1    1.5687E+02  9.4677E-01   1.5592E+02  0.000E+00  0.000E+00  0.000E+00  1.02474E+03  2.861E+00  4.149E+01  4.228E-01  7.465E-01
   1   13    5     8     2    1.5592E+02  2.0179E-01   1.5572E+02  0.000E+00  0.000E+00  0.000E+00  1.01848E+03  2.857E+00  4.143E+01  4.222E-01  1.593E-01
   1   13    4     8     3    1.5572E+02 -2.4740E+00   1.5820E+02  0.000E+00  0.000E+00  0.000E+00  1.01224E+03  2.865E+00  4.154E+01  4.234E+00 -1.948E-01
   1   13    3     8     4    1.5820E+02 -3.7510E+00   1.6195E+02  0.000E+00  0.000E+00  0.000E+00  1.00601E+03  2.886E+00  4.185E+01  4.265E+00 -2.932E-01
   1   13    2     8     5    1.6195E+02 -2.7707E+00   1.6472E+02  0.000E+00  0.000E+00  0.000E+00  9.99783E+02  2.908E+00  4.217E+01  4.297E+00 -2.149E-01
   1   13    1     8     6    1.6472E+02 -2.1102E+00   1.6683E+02  0.000E+00  0.000E+00  0.000E+00  9.94799E+02  2.924E+00  4.240E+01  2.593E+00 -2.713E-01
   1    8    6     9     1    3.5878E+00  0.0000E+00   3.5878E+00  0.000E+00  0.000E+00  0.000E+00  1.07998E+03  1.225E+00  4.000E+00  0.000E+00  1.408E+00
   1    8    5     9     2    3.5878E+00  0.0000E+00   3.5878E+00  0.000E+00  0.000E+00  0.000E+00  1.07948E+03  1.225E+00  4.000E+00  0.000E+00  1.408E+00



 UBDSV3 SAVING "           GW ET" ON UNIT  61 AT TIME STEP  8, STRESS PERIOD   5
 UBDSV3 SAVING "    UZF RECHARGE" ON UNIT  61 AT TIME STEP  8, STRESS PERIOD   5
 UBDSV3 SAVING " SURFACE LEAKAGE" ON UNIT  61 AT TIME STEP  8, STRESS PERIOD   5
 UBDSV3 SAVING "       HORT+DUNN" ON UNIT  61 AT TIME STEP  8, STRESS PERIOD   5
 UBDSV3 SAVING "  STORAGE CHANGE" ON UNIT  61 AT TIME STEP  8, STRESS PERIOD   5


UNSATURATED ZONE PACKAGE VOLUMETRIC BUDGET FOR  TIME STEP     8 STRESS PERIOD    5
  ------------------------------------------------------------------------------



     CUMULATIVE VOLUMES      L**3       RATES FOR THIS TIME STEP      L**3/T
     ------------------                 ------------------------

           IN:                                      IN:
           ---                                      ---
        INFILTRATION =    39935229.2083          INFILTRATION =           7.9954

          OUT:                                     OUT:
          ----                                     ----
              UZF ET =    20222885.4189                UZF ET =          16.1940
        UZF RECHARGE =       73224.0000          UZF RECHARGE =       0.0000E+00

            IN - OUT =    19639119.7893              IN - OUT =          -8.1986

          STORAGE:                                 STORAGE:
          --------                                 --------
      STORAGE CHANGE =    19639119.4815        STORAGE CHANGE =          -8.1986

 PERCENT DISCREPANCY IS DIFFERENCE BETWEEN IN-OUT MINUS CHANGE IN STORAGE
 DIVIDED BY THE AVERAGE OF IN AND OUT TIMES 100

 PERCENT DISCREPANCY =           0.00     PERCENT DISCREPANCY =           0.00






 

            AG WELLS      PERIOD    5   STEP   8
 AG WELL      1   LAYER   1   ROW     6   COL     4   RATE     0.00000    
 AG WELL      2   LAYER   1   ROW     6   COL     5   RATE     0.00000    
 AG WELL      3   LAYER   1   ROW     7   COL     4   RATE     0.00000    
 AG WELL      4   LAYER   1   ROW     7   COL     5   RATE     0.00000    
 AG WELL      5   LAYER   1   ROW     8   COL     4   RATE     0.00000    
 AG WELL      6   LAYER   1   ROW     8   COL     5   RATE     0.00000    
 
 

   DIVERSION SEGMENTS     PERIOD    5   STEP   8
 SEGMENT      9   RATE     3.58783    
 
 

        SW IRRIGATION     PERIOD    5   STEP   8
 SEGMENT      9   ROW     6   COL     4   RATE    0.597983    
 SEGMENT      9   ROW     6   COL     5   RATE    0.597983    
 SEGMENT      9   ROW     7   COL     4   RATE    0.597983    
 SEGMENT      9   ROW     7   COL     5   RATE    0.597983    
 SEGMENT      9   ROW     8   COL     4   RATE    0.597983    
 SEGMENT      9   ROW     8   COL     5   RATE    0.597983    
 
 

        GW IRRIGATION     PERIOD    5   STEP   8
 AG WELL      1   ROW     6   COL     4   RATE     0.00000    
 AG WELL      2   ROW     6   COL     5   RATE     0.00000    
 AG WELL      3   ROW     7   COL     4   RATE     0.00000    
 AG WELL      4   ROW     7   COL     5   RATE     0.00000    
 AG WELL      5   ROW     8   COL     4   RATE     0.00000    
 AG WELL      6   ROW     8   COL     5   RATE     0.00000    
 
1
  VOLUMETRIC BUDGET FOR AGRICULTURAL FIELDS AT  END OF TIME STEP    8, STRESS PERIOD   5
  ------------------------------------------------------------------------------

     CUMULATIVE VOLUMES      L**3       RATES FOR THIS TIME STEP      L**3/T
     ------------------                 ------------------------

           IN:                                      IN:
           ---                                      ---
               AG WELLS  =       28024.7754                 AG WELLS  =           0.0000
      DIVERSION SEGMENTS =     1995665.6250        DIVERSION SEGMENTS =           3.5878
           GW IRRIGATION =           0.0000             GW IRRIGATION =           0.0000
           SW IRRIGATION =           0.0000             SW IRRIGATION =           0.0000
        SYSTEM LOSSES GW =           0.0000          SYSTEM LOSSES GW =           0.0000
        SYSTEM LOSSES SW =           0.0000          SYSTEM LOSSES SW =           0.0000

                TOTAL IN =     2023690.3750                  TOTAL IN =           3.5878

          OUT:                                     OUT:
          ----                                     ----
               AG WELLS  =           0.0000                 AG WELLS  =           0.0000
      DIVERSION SEGMENTS =           0.0000        DIVERSION SEGMENTS =           0.0000
           GW IRRIGATION =       28024.7754             GW IRRIGATION =           0.0000
           SW IRRIGATION =     1995705.3750             SW IRRIGATION =           3.5879
        SYSTEM LOSSES GW =           0.0000          SYSTEM LOSSES GW =           0.0000
        SYSTEM LOSSES SW =           0.0000          SYSTEM LOSSES SW =           0.0000

               TOTAL OUT =     2023730.1250                 TOTAL OUT =           3.5879

                IN - OUT =         -39.7500                  IN - OUT =      -7.1764E-05

     PERCENT DISCREPANCY =          -0.00         PERCENT DISCREPANCY =          -0.00



1
  VOLUMETRIC BUDGET FOR ENTIRE MODEL AT END OF TIME STEP    8, STRESS PERIOD   5
  ------------------------------------------------------------------------------

     CUMULATIVE VOLUMES      L**3       RATES FOR THIS TIME STEP      L**3/T
     ------------------                 ------------------------

           IN:                                      IN:
           ---                                      ---
             STORAGE     =     5375717.5000               STORAGE     =           1.3448
       CONSTANT HEAD     =           0.0000         CONSTANT HEAD     =           0.0000
     HEAD DEP BOUNDS     =     2497686.0000       HEAD DEP BOUNDS     =           0.2879
      STREAM LEAKAGE     =   101341088.0000        STREAM LEAKAGE     =          11.2306
        UZF RECHARGE     =       73223.9531          UZF RECHARGE     =           0.0000
               GW ET     =           0.0000                 GW ET     =           0.0000
     SURFACE LEAKAGE     =           0.0000       SURFACE LEAKAGE     =           0.0000
           AG WELLS      =           0.0000             AG WELLS      =           0.0000

                TOTAL IN =   109287712.0000                  TOTAL IN =          12.8632

          OUT:                                     OUT:
          ----                                     ----
             STORAGE     =    18557860.0000               STORAGE     =           1.4270
       CONSTANT HEAD     =           0.0000         CONSTANT HEAD     =           0.0000
     HEAD DEP BOUNDS     =     2500859.5000       HEAD DEP BOUNDS     =           0.2893
      STREAM LEAKAGE     =    88204560.0000        STREAM LEAKAGE     =          11.1468
        UZF RECHARGE     =           0.0000          UZF RECHARGE     =           0.0000
               GW ET     =           0.0000                 GW ET     =           0.0000
     SURFACE LEAKAGE     =           0.0000       SURFACE LEAKAGE     =           0.0000
           AG WELLS      =       28024.7754             AG WELLS      =           0.0000

               TOTAL OUT =   109291304.0000                 TOTAL OUT =          12.8632

                IN - OUT =       -3592.0000                  IN - OUT =       5.5313E-05

     PERCENT DISCREPANCY =          -0.00         PERCENT DISCREPANCY =           0.00






         TIME SUMMARY AT END OF TIME STEP    8 IN STRESS PERIOD    5
                    SECONDS     MINUTES      HOURS       DAYS        YEARS
                    -----------------------------------------------------------
   TIME STEP LENGTH  87667.      1461.1      24.352      1.0147     2.77799E-03
 STRESS PERIOD TIME 7.01333E+05  11689.      194.81      8.1173     2.22239E-02
         TOTAL TIME 8.67773E+06 1.44629E+05  2410.5      100.44     0.27498    
1
 
 SOLVING FOR HEAD 
                                                   Max.-Head-Change                         Max.-Flux-Residual
  Residual-Control   Outer-Iter.   Inner-Iter.     Column Row Layer    Maximum-Head-Change  Column Row Layer    Maximum-Flux-Residual          L2-NORM 
          0                 1           2             2   13     1      -0.2729463485E-02       2   13    1        -0.1532123070E+00      0.3686289391E+00
          0                 2           2             4    7     1      -0.5604433798E-02       5    6    1        -0.3034419117E+00      0.7410413968E+00
          0                 3           2             4    7     1       0.5786087129E-02       5    6    1         0.3196063756E+00      0.7853381046E+00
          0                 4           2             4    7     1      -0.2302536064E-03       4    6    1        -0.1315269280E-01      0.3266169474E-01
          0                 5           1             4   13     1      -0.4206798770E-05       4   13    1        -0.2543082710E-03      0.5856423986E-03

    ------------------------------------------------
       NWT REQUIRED            5 OUTER ITERATIONS 
       AND A TOTAL OF          9 INNER ITERATIONS.
    ------------------------------------------------

 OUTPUT CONTROL FOR STRESS PERIOD    5   TIME STEP    9
    PRINT BUDGET
    SAVE BUDGET
 UBDSV1 SAVING "         STORAGE" ON UNIT 102 AT TIME STEP  9, STRESS PERIOD   5
 UBDSV2 SAVING "   CONSTANT HEAD" ON UNIT 102 AT TIME STEP  9, STRESS PERIOD   5
 UBDSV1 SAVING "FLOW RIGHT FACE " ON UNIT 102 AT TIME STEP  9, STRESS PERIOD   5
 UBDSV1 SAVING "FLOW FRONT FACE " ON UNIT 102 AT TIME STEP  9, STRESS PERIOD   5

  HEAD DEP BOUNDS   PERIOD    5   STEP     9
 BOUNDARY      1   LAYER   1   ROW    13   COL     1   RATE   -0.289212    
 BOUNDARY      2   LAYER   1   ROW    14   COL     9   RATE    0.287889    



 STREAM LISTING     PERIOD      5   STEP        9

 LAYER ROW COL. STREAM  RCH.  FLOW INTO     FLOW TO   FLOW OUT OF   OVRLND.     DIRECT     STREAM       STREAM     STREAM     STREAM   STREAMBED  STREAMBED
                SEG.NO.  NO.  STRM. RCH.    AQUIFER    STRM. RCH.    RUNOFF     PRECIP       ET          HEAD       DEPTH      WIDTH   CONDCTNC.   GRADIENT

   1    1    1     1     1    1.0500E+01  1.5271E-01   1.0347E+01  0.000E+00  0.000E+00  0.000E+00  1.09396E+03  9.109E-01  8.677E+00  3.905E-02  1.304E+00
   1    2    2     1     2    1.0347E+01  2.3505E-01   1.0112E+01  0.000E+00  0.000E+00  0.000E+00  1.08896E+03  9.059E-01  8.597E+00  6.018E-02  1.302E+00
   1    3    3     1     3    1.0112E+01  1.9904E-01   9.9132E+00  0.000E+00  0.000E+00  0.000E+00  1.08332E+03  9.003E-01  8.505E+00  5.103E-02  1.300E+00
   1    3    4     1     4    9.9132E+00  1.8195E-01   9.7313E+00  0.000E+00  0.000E+00  0.000E+00  1.07830E+03  8.947E-01  8.417E+00  4.672E-02  1.298E+00
   1    4    5     2     1    7.7313E+00  2.8007E-01   7.4512E+00  0.000E+00  0.000E+00  0.000E+00  1.07252E+03  5.907E-01  1.200E+01  7.800E-02  1.197E+00
   1    5    6     2     2    7.4512E+00  2.1474E-01   7.2365E+00  0.000E+00  0.000E+00  0.000E+00  1.06709E+03  5.790E-01  1.200E+01  6.000E-02  1.193E+00
   1    6    6     2     3    7.2365E+00  2.1413E-01   7.0224E+00  0.000E+00  0.000E+00  0.000E+00  1.06236E+03  5.688E-01  1.200E+01  6.000E-02  1.190E+00
   1    7    6     2     4    7.0224E+00  2.1351E-01   6.8088E+00  0.000E+00  0.000E+00  0.000E+00  1.05763E+03  5.585E-01  1.200E+01  6.000E-02  1.186E+00
   1    8    6     2     5    6.8088E+00  2.1289E-01   6.5960E+00  0.000E+00  0.000E+00  0.000E+00  1.05291E+03  5.481E-01  1.200E+01  6.000E-02  1.183E+00
   1    3    5     3     1    2.0000E+00  2.8252E-01   1.7175E+00  0.000E+00  0.000E+00  0.000E+00  1.07555E+03  1.909E+00  9.636E+00  7.227E-02  1.955E+00
   1    3    6     3     2    1.7175E+00  2.4905E-01   1.4684E+00  0.000E+00  0.000E+00  0.000E+00  1.07264E+03  1.727E+00  8.909E+00  6.682E-02  1.864E+00
   1    3    7     3     3    1.4684E+00  1.9718E-01   1.2712E+00  0.000E+00  0.000E+00  0.000E+00  1.06987E+03  1.555E+00  8.218E+00  5.547E-02  1.777E+00
   1    4    8     3     4    1.2712E+00  2.2567E-01   1.0456E+00  0.000E+00  0.000E+00  0.000E+00  1.06682E+03  1.364E+00  7.455E+00  6.709E-02  1.682E+00
   1    5    8     3     5    1.0456E+00  1.5790E-01   8.8768E-01  0.000E+00  0.000E+00  0.000E+00  1.06362E+03  1.164E+00  6.655E+00  4.991E-02  1.582E+00
   1    6    8     3     6    8.8768E-01  5.5980E-02   8.3170E-01  0.000E+00  0.000E+00  0.000E+00  1.06158E+03  1.036E+00  6.145E+00  1.844E-02  1.518E+00
   1    5   10     4     1    1.0000E+01  9.0919E-02   9.9091E+00  0.000E+00  0.000E+00  0.000E+00  1.07836E+03  6.368E-01  1.000E+01  2.500E-02  1.212E+00
   1    5    9     4     2    9.9091E+00  1.8158E-01   9.7275E+00  0.000E+00  0.000E+00  0.000E+00  1.07154E+03  6.315E-01  1.000E+01  5.000E-02  1.211E+00
   1    6    8     4     3    9.7275E+00  1.2689E-01   9.6006E+00  0.000E+00  0.000E+00  0.000E+00  1.06381E+03  6.256E-01  1.000E+01  3.500E-02  1.209E+00
   1    6    8     5     1    1.0432E+01  2.2686E-01   1.0205E+01  0.000E+00  0.000E+00  0.000E+00  1.05868E+03  6.790E-01  1.542E+01  6.166E-02  1.226E+00
   1    7    7     5     2    1.0205E+01  2.7894E-01   9.9265E+00  0.000E+00  0.000E+00  0.000E+00  1.05417E+03  6.732E-01  1.519E+01  7.594E-02  1.224E+00
   1    8    7     5     3    9.9265E+00  1.9221E-01   9.7343E+00  0.000E+00  0.000E+00  0.000E+00  1.04992E+03  6.676E-01  1.497E+01  5.241E-02  1.223E+00
   1    8    6     5     4    9.7343E+00  1.3577E-01   9.5985E+00  0.000E+00  0.000E+00  0.000E+00  1.04691E+03  6.637E-01  1.482E+01  3.706E-02  1.221E+00
   1    9    6     6     1    1.2614E+01  2.2834E-01   1.2386E+01  0.000E+00  0.000E+00  0.000E+00  1.04353E+03  8.056E-01  1.200E+01  6.000E-02  1.269E+00
   1   10    7     6     2    1.2386E+01  2.2780E-01   1.2158E+01  0.000E+00  0.000E+00  0.000E+00  1.03898E+03  7.967E-01  1.200E+01  6.000E-02  1.266E+00
   1   11    7     6     3    1.2158E+01  2.2727E-01   1.1931E+01  0.000E+00  0.000E+00  0.000E+00  1.03442E+03  7.878E-01  1.200E+01  6.000E-02  1.263E+00
   1   12    7     6     4    1.1931E+01  2.2673E-01   1.1704E+01  0.000E+00  0.000E+00  0.000E+00  1.02987E+03  7.789E-01  1.200E+01  6.000E-02  1.260E+00
   1   13    7     6     5    1.1704E+01 -4.0850E-02   1.1745E+01  0.000E+00  0.000E+00  0.000E+00  1.02668E+03  7.752E-01  1.200E+01  2.400E-01 -5.674E-02
   1   14    9     7     1    1.5000E+02  1.3671E+00   1.4863E+02  0.000E+00  0.000E+00  0.000E+00  1.03987E+03  2.288E+00  5.529E+01  5.593E-01  8.148E-01
   1   13    8     7     2    1.4863E+02  1.9167E+00   1.4672E+02  0.000E+00  0.000E+00  0.000E+00  1.03478E+03  2.279E+00  5.526E+01  6.148E-01  1.039E+00
   1   13    7     7     3    1.4672E+02  1.5827E+00   1.4513E+02  0.000E+00  0.000E+00  0.000E+00  1.02969E+03  2.270E+00  5.521E+01  5.584E-01  9.448E-01
   1   13    6     8     1    1.5688E+02  9.4715E-01   1.5593E+02  0.000E+00  0.000E+00  0.000E+00  1.02474E+03  2.861E+00  4.149E+01  4.228E-01  7.467E-01
   1   13    5     8     2    1.5593E+02  2.0213E-01   1.5573E+02  0.000E+00  0.000E+00  0.000E+00  1.01848E+03  2.857E+00  4.143E+01  4.222E-01  1.596E-01
   1   13    4     8     3    1.5573E+02 -2.4598E+00   1.5819E+02  0.000E+00  0.000E+00  0.000E+00  1.01224E+03  2.865E+00  4.154E+01  4.234E+00 -1.937E-01
   1   13    3     8     4    1.5819E+02 -3.7373E+00   1.6193E+02  0.000E+00  0.000E+00  0.000E+00  1.00601E+03  2.886E+00  4.185E+01  4.265E+00 -2.921E-01
   1   13    2     8     5    1.6193E+02 -2.7555E+00   1.6468E+02  0.000E+00  0.000E+00  0.000E+00  9.99783E+02  2.908E+00  4.217E+01  4.297E+00 -2.138E-01
   1   13    1     8     6    1.6468E+02 -2.1042E+00   1.6679E+02  0.000E+00  0.000E+00  0.000E+00  9.94799E+02  2.924E+00  4.240E+01  2.592E+00 -2.705E-01
   1    8    6     9     1    3.5804E+00  0.0000E+00   3.5804E+00  0.000E+00  0.000E+00  0.000E+00  1.07997E+03  1.224E+00  4.000E+00  0.000E+00  1.408E+00
   1    8    5     9     2    3.5804E+00  0.0000E+00   3.5804E+00  0.000E+00  0.000E+00  0.000E+00  1.07947E+03  1.224E+00  4.000E+00  0.000E+00  1.408E+00



 UBDSV3 SAVING "           GW ET" ON UNIT  61 AT TIME STEP  9, STRESS PERIOD   5
 UBDSV3 SAVING "    UZF RECHARGE" ON UNIT  61 AT TIME STEP  9, STRESS PERIOD   5
 UBDSV3 SAVING " SURFACE LEAKAGE" ON UNIT  61 AT TIME STEP  9, STRESS PERIOD   5
 UBDSV3 SAVING "       HORT+DUNN" ON UNIT  61 AT TIME STEP  9, STRESS PERIOD   5
 UBDSV3 SAVING "  STORAGE CHANGE" ON UNIT  61 AT TIME STEP  9, STRESS PERIOD   5


UNSATURATED ZONE PACKAGE VOLUMETRIC BUDGET FOR  TIME STEP     9 STRESS PERIOD    5
  ------------------------------------------------------------------------------



     CUMULATIVE VOLUMES      L**3       RATES FOR THIS TIME STEP      L**3/T
     ------------------                 ------------------------

           IN:                                      IN:
           ---                                      ---
        INFILTRATION =    40635506.7229          INFILTRATION =           7.9880

          OUT:                                     OUT:
          ----                                     ----
              UZF ET =    21124679.2500                UZF ET =          10.2866
        UZF RECHARGE =       73224.0000          UZF RECHARGE =       0.0000E+00

            IN - OUT =    19437603.4729              IN - OUT =          -2.2987

          STORAGE:                                 STORAGE:
          --------                                 --------
      STORAGE CHANGE =    19437603.1546        STORAGE CHANGE =          -2.2987

 PERCENT DISCREPANCY IS DIFFERENCE BETWEEN IN-OUT MINUS CHANGE IN STORAGE
 DIVIDED BY THE AVERAGE OF IN AND OUT TIMES 100

 PERCENT DISCREPANCY =           0.00     PERCENT DISCREPANCY =           0.00






 

            AG WELLS      PERIOD    5   STEP   9
 AG WELL      1   LAYER   1   ROW     6   COL     4   RATE     0.00000    
 AG WELL      2   LAYER   1   ROW     6   COL     5   RATE     0.00000    
 AG WELL      3   LAYER   1   ROW     7   COL     4   RATE     0.00000    
 AG WELL      4   LAYER   1   ROW     7   COL     5   RATE     0.00000    
 AG WELL      5   LAYER   1   ROW     8   COL     4   RATE     0.00000    
 AG WELL      6   LAYER   1   ROW     8   COL     5   RATE     0.00000    
 
 

   DIVERSION SEGMENTS     PERIOD    5   STEP   9
 SEGMENT      9   RATE     3.58039    
 
 

        SW IRRIGATION     PERIOD    5   STEP   9
 SEGMENT      9   ROW     6   COL     4   RATE    0.596743    
 SEGMENT      9   ROW     6   COL     5   RATE    0.596743    
 SEGMENT      9   ROW     7   COL     4   RATE    0.596743    
 SEGMENT      9   ROW     7   COL     5   RATE    0.596743    
 SEGMENT      9   ROW     8   COL     4   RATE    0.596743    
 SEGMENT      9   ROW     8   COL     5   RATE    0.596743    
 
 

        GW IRRIGATION     PERIOD    5   STEP   9
 AG WELL      1   ROW     6   COL     4   RATE     0.00000    
 AG WELL      2   ROW     6   COL     5   RATE     0.00000    
 AG WELL      3   ROW     7   COL     4   RATE     0.00000    
 AG WELL      4   ROW     7   COL     5   RATE     0.00000    
 AG WELL      5   ROW     8   COL     4   RATE     0.00000    
 AG WELL      6   ROW     8   COL     5   RATE     0.00000    
 
1
  VOLUMETRIC BUDGET FOR AGRICULTURAL FIELDS AT  END OF TIME STEP    9, STRESS PERIOD   5
  ------------------------------------------------------------------------------

     CUMULATIVE VOLUMES      L**3       RATES FOR THIS TIME STEP      L**3/T
     ------------------                 ------------------------

           IN:                                      IN:
           ---                                      ---
               AG WELLS  =       28024.7754                 AG WELLS  =           0.0000
      DIVERSION SEGMENTS =     2309546.0000        DIVERSION SEGMENTS =           3.5804
           GW IRRIGATION =           0.0000             GW IRRIGATION =           0.0000
           SW IRRIGATION =           0.0000             SW IRRIGATION =           0.0000
        SYSTEM LOSSES GW =           0.0000          SYSTEM LOSSES GW =           0.0000
        SYSTEM LOSSES SW =           0.0000          SYSTEM LOSSES SW =           0.0000

                TOTAL IN =     2337570.7500                  TOTAL IN =           3.5804

          OUT:                                     OUT:
          ----                                     ----
               AG WELLS  =           0.0000                 AG WELLS  =           0.0000
      DIVERSION SEGMENTS =           0.0000        DIVERSION SEGMENTS =           0.0000
           GW IRRIGATION =       28024.7754             GW IRRIGATION =           0.0000
           SW IRRIGATION =     2309592.0000             SW IRRIGATION =           3.5805
        SYSTEM LOSSES GW =           0.0000          SYSTEM LOSSES GW =           0.0000
        SYSTEM LOSSES SW =           0.0000          SYSTEM LOSSES SW =           0.0000

               TOTAL OUT =     2337616.7500                 TOTAL OUT =           3.5805

                IN - OUT =         -46.0000                  IN - OUT =      -7.1287E-05

     PERCENT DISCREPANCY =          -0.00         PERCENT DISCREPANCY =          -0.00



1
  VOLUMETRIC BUDGET FOR ENTIRE MODEL AT END OF TIME STEP    9, STRESS PERIOD   5
  ------------------------------------------------------------------------------

     CUMULATIVE VOLUMES      L**3       RATES FOR THIS TIME STEP      L**3/T
     ------------------                 ------------------------

           IN:                                      IN:
           ---                                      ---
             STORAGE     =     5488546.0000               STORAGE     =           1.2870
       CONSTANT HEAD     =           0.0000         CONSTANT HEAD     =           0.0000
     HEAD DEP BOUNDS     =     2522924.2500       HEAD DEP BOUNDS     =           0.2879
      STREAM LEAKAGE     =   102325720.0000        STREAM LEAKAGE     =          11.2316
        UZF RECHARGE     =       73223.9531          UZF RECHARGE     =           0.0000
               GW ET     =           0.0000                 GW ET     =           0.0000
     SURFACE LEAKAGE     =           0.0000       SURFACE LEAKAGE     =           0.0000
           AG WELLS      =           0.0000             AG WELLS      =           0.0000

                TOTAL IN =   110410416.0000                  TOTAL IN =          12.8065

          OUT:                                     OUT:
          ----                                     ----
             STORAGE     =    18682314.0000               STORAGE     =           1.4196
       CONSTANT HEAD     =           0.0000         CONSTANT HEAD     =           0.0000
     HEAD DEP BOUNDS     =     2526213.7500       HEAD DEP BOUNDS     =           0.2892
      STREAM LEAKAGE     =    89177448.0000        STREAM LEAKAGE     =          11.0976
        UZF RECHARGE     =           0.0000          UZF RECHARGE     =           0.0000
               GW ET     =           0.0000                 GW ET     =           0.0000
     SURFACE LEAKAGE     =           0.0000       SURFACE LEAKAGE     =           0.0000
           AG WELLS      =       28024.7754             AG WELLS      =           0.0000

               TOTAL OUT =   110414000.0000                 TOTAL OUT =          12.8064

                IN - OUT =       -3584.0000                  IN - OUT =       5.6267E-05

     PERCENT DISCREPANCY =          -0.00         PERCENT DISCREPANCY =           0.00






         TIME SUMMARY AT END OF TIME STEP    9 IN STRESS PERIOD    5
                    SECONDS     MINUTES      HOURS       DAYS        YEARS
                    -----------------------------------------------------------
   TIME STEP LENGTH  87667.      1461.1      24.352      1.0147     2.77799E-03
 STRESS PERIOD TIME 7.89000E+05  13150.      219.17      9.1319     2.50019E-02
         TOTAL TIME 8.76540E+06 1.46090E+05  2434.8      101.45     0.27776    
1
 
 SOLVING FOR HEAD 
                                                   Max.-Head-Change                         Max.-Flux-Residual
  Residual-Control   Outer-Iter.   Inner-Iter.     Column Row Layer    Maximum-Head-Change  Column Row Layer    Maximum-Flux-Residual          L2-NORM 
          0                 1           2             2   13     1      -0.2437228955E-02       2   13    1        -0.1367811971E+00      0.3474696329E+00
          0                 2           2             4    7     1      -0.5596175635E-02       5    6    1        -0.3029365430E+00      0.7400545773E+00
          0                 3           2             4    7     1       0.5774594062E-02       5    6    1         0.3189672743E+00      0.7837670541E+00
          0                 4           2             4    7     1      -0.2293528564E-03       4    6    1        -0.1312216863E-01      0.3253389781E-01
          0                 5           1             4   13     1      -0.4414918950E-05       4   13    1        -0.2668772049E-03      0.6356326349E-03

    ------------------------------------------------
       NWT REQUIRED            5 OUTER ITERATIONS 
       AND A TOTAL OF          9 INNER ITERATIONS.
    ------------------------------------------------

 OUTPUT CONTROL FOR STRESS PERIOD    5   TIME STEP   10
    PRINT BUDGET
    SAVE BUDGET
 UBDSV1 SAVING "         STORAGE" ON UNIT 102 AT TIME STEP 10, STRESS PERIOD   5
 UBDSV2 SAVING "   CONSTANT HEAD" ON UNIT 102 AT TIME STEP 10, STRESS PERIOD   5
 UBDSV1 SAVING "FLOW RIGHT FACE " ON UNIT 102 AT TIME STEP 10, STRESS PERIOD   5
 UBDSV1 SAVING "FLOW FRONT FACE " ON UNIT 102 AT TIME STEP 10, STRESS PERIOD   5

  HEAD DEP BOUNDS   PERIOD    5   STEP    10
 BOUNDARY      1   LAYER   1   ROW    13   COL     1   RATE   -0.289121    
 BOUNDARY      2   LAYER   1   ROW    14   COL     9   RATE    0.287890    



 STREAM LISTING     PERIOD      5   STEP       10

 LAYER ROW COL. STREAM  RCH.  FLOW INTO     FLOW TO   FLOW OUT OF   OVRLND.     DIRECT     STREAM       STREAM     STREAM     STREAM   STREAMBED  STREAMBED
                SEG.NO.  NO.  STRM. RCH.    AQUIFER    STRM. RCH.    RUNOFF     PRECIP       ET          HEAD       DEPTH      WIDTH   CONDCTNC.   GRADIENT

   1    1    1     1     1    1.0500E+01  1.5271E-01   1.0347E+01  0.000E+00  0.000E+00  0.000E+00  1.09396E+03  9.109E-01  8.677E+00  3.905E-02  1.304E+00
   1    2    2     1     2    1.0347E+01  2.3505E-01   1.0112E+01  0.000E+00  0.000E+00  0.000E+00  1.08896E+03  9.059E-01  8.597E+00  6.018E-02  1.302E+00
   1    3    3     1     3    1.0112E+01  1.9904E-01   9.9132E+00  0.000E+00  0.000E+00  0.000E+00  1.08332E+03  9.003E-01  8.505E+00  5.103E-02  1.300E+00
   1    3    4     1     4    9.9132E+00  1.8195E-01   9.7313E+00  0.000E+00  0.000E+00  0.000E+00  1.07830E+03  8.947E-01  8.417E+00  4.672E-02  1.298E+00
   1    4    5     2     1    7.7313E+00  2.8007E-01   7.4512E+00  0.000E+00  0.000E+00  0.000E+00  1.07252E+03  5.907E-01  1.200E+01  7.800E-02  1.197E+00
   1    5    6     2     2    7.4512E+00  2.1474E-01   7.2365E+00  0.000E+00  0.000E+00  0.000E+00  1.06709E+03  5.790E-01  1.200E+01  6.000E-02  1.193E+00
   1    6    6     2     3    7.2365E+00  2.1413E-01   7.0224E+00  0.000E+00  0.000E+00  0.000E+00  1.06236E+03  5.688E-01  1.200E+01  6.000E-02  1.190E+00
   1    7    6     2     4    7.0224E+00  2.1351E-01   6.8088E+00  0.000E+00  0.000E+00  0.000E+00  1.05763E+03  5.585E-01  1.200E+01  6.000E-02  1.186E+00
   1    8    6     2     5    6.8088E+00  2.1289E-01   6.5960E+00  0.000E+00  0.000E+00  0.000E+00  1.05291E+03  5.481E-01  1.200E+01  6.000E-02  1.183E+00
   1    3    5     3     1    2.0000E+00  2.8252E-01   1.7175E+00  0.000E+00  0.000E+00  0.000E+00  1.07555E+03  1.909E+00  9.636E+00  7.227E-02  1.955E+00
   1    3    6     3     2    1.7175E+00  2.4905E-01   1.4684E+00  0.000E+00  0.000E+00  0.000E+00  1.07264E+03  1.727E+00  8.909E+00  6.682E-02  1.864E+00
   1    3    7     3     3    1.4684E+00  1.9718E-01   1.2712E+00  0.000E+00  0.000E+00  0.000E+00  1.06987E+03  1.555E+00  8.218E+00  5.547E-02  1.777E+00
   1    4    8     3     4    1.2712E+00  2.2567E-01   1.0456E+00  0.000E+00  0.000E+00  0.000E+00  1.06682E+03  1.364E+00  7.455E+00  6.709E-02  1.682E+00
   1    5    8     3     5    1.0456E+00  1.5790E-01   8.8768E-01  0.000E+00  0.000E+00  0.000E+00  1.06362E+03  1.164E+00  6.655E+00  4.991E-02  1.582E+00
   1    6    8     3     6    8.8768E-01  5.5980E-02   8.3170E-01  0.000E+00  0.000E+00  0.000E+00  1.06158E+03  1.036E+00  6.145E+00  1.844E-02  1.518E+00
   1    5   10     4     1    1.0000E+01  9.0919E-02   9.9091E+00  0.000E+00  0.000E+00  0.000E+00  1.07836E+03  6.368E-01  1.000E+01  2.500E-02  1.212E+00
   1    5    9     4     2    9.9091E+00  1.8158E-01   9.7275E+00  0.000E+00  0.000E+00  0.000E+00  1.07154E+03  6.315E-01  1.000E+01  5.000E-02  1.211E+00
   1    6    8     4     3    9.7275E+00  1.2689E-01   9.6006E+00  0.000E+00  0.000E+00  0.000E+00  1.06381E+03  6.256E-01  1.000E+01  3.500E-02  1.209E+00
   1    6    8     5     1    1.0432E+01  2.2686E-01   1.0205E+01  0.000E+00  0.000E+00  0.000E+00  1.05868E+03  6.790E-01  1.542E+01  6.166E-02  1.226E+00
   1    7    7     5     2    1.0205E+01  2.7894E-01   9.9265E+00  0.000E+00  0.000E+00  0.000E+00  1.05417E+03  6.732E-01  1.519E+01  7.594E-02  1.224E+00
   1    8    7     5     3    9.9265E+00  1.9221E-01   9.7343E+00  0.000E+00  0.000E+00  0.000E+00  1.04992E+03  6.676E-01  1.497E+01  5.241E-02  1.223E+00
   1    8    6     5     4    9.7343E+00  1.3577E-01   9.5985E+00  0.000E+00  0.000E+00  0.000E+00  1.04691E+03  6.637E-01  1.482E+01  3.706E-02  1.221E+00
   1    9    6     6     1    1.2617E+01  2.2834E-01   1.2389E+01  0.000E+00  0.000E+00  0.000E+00  1.04353E+03  8.057E-01  1.200E+01  6.000E-02  1.269E+00
   1   10    7     6     2    1.2389E+01  2.2781E-01   1.2161E+01  0.000E+00  0.000E+00  0.000E+00  1.03898E+03  7.969E-01  1.200E+01  6.000E-02  1.266E+00
   1   11    7     6     3    1.2161E+01  2.2728E-01   1.1934E+01  0.000E+00  0.000E+00  0.000E+00  1.03442E+03  7.880E-01  1.200E+01  6.000E-02  1.263E+00
   1   12    7     6     4    1.1934E+01  2.2674E-01   1.1707E+01  0.000E+00  0.000E+00  0.000E+00  1.02987E+03  7.791E-01  1.200E+01  6.000E-02  1.260E+00
   1   13    7     6     5    1.1707E+01 -4.0712E-02   1.1748E+01  0.000E+00  0.000E+00  0.000E+00  1.02668E+03  7.754E-01  1.200E+01  2.400E-01 -5.654E-02
   1   14    9     7     1    1.5000E+02  1.3671E+00   1.4863E+02  0.000E+00  0.000E+00  0.000E+00  1.03987E+03  2.288E+00  5.529E+01  5.593E-01  8.148E-01
   1   13    8     7     2    1.4863E+02  1.9167E+00   1.4672E+02  0.000E+00  0.000E+00  0.000E+00  1.03478E+03  2.279E+00  5.526E+01  6.148E-01  1.039E+00
   1   13    7     7     3    1.4672E+02  1.5830E+00   1.4513E+02  0.000E+00  0.000E+00  0.000E+00  1.02969E+03  2.270E+00  5.521E+01  5.584E-01  9.449E-01
   1   13    6     8     1    1.5688E+02  9.4750E-01   1.5593E+02  0.000E+00  0.000E+00  0.000E+00  1.02474E+03  2.861E+00  4.149E+01  4.228E-01  7.470E-01
   1   13    5     8     2    1.5593E+02  2.0247E-01   1.5573E+02  0.000E+00  0.000E+00  0.000E+00  1.01848E+03  2.857E+00  4.143E+01  4.222E-01  1.598E-01
   1   13    4     8     3    1.5573E+02 -2.4469E+00   1.5818E+02  0.000E+00  0.000E+00  0.000E+00  1.01224E+03  2.865E+00  4.154E+01  4.234E+00 -1.927E-01
   1   13    3     8     4    1.5818E+02 -3.7247E+00   1.6190E+02  0.000E+00  0.000E+00  0.000E+00  1.00601E+03  2.886E+00  4.185E+01  4.265E+00 -2.911E-01
   1   13    2     8     5    1.6190E+02 -2.7414E+00   1.6464E+02  0.000E+00  0.000E+00  0.000E+00  9.99783E+02  2.908E+00  4.216E+01  4.297E+00 -2.127E-01
   1   13    1     8     6    1.6464E+02 -2.0985E+00   1.6674E+02  0.000E+00  0.000E+00  0.000E+00  9.94799E+02  2.924E+00  4.240E+01  2.592E+00 -2.698E-01
   1    8    6     9     1    3.5771E+00  0.0000E+00   3.5771E+00  0.000E+00  0.000E+00  0.000E+00  1.07997E+03  1.223E+00  4.000E+00  0.000E+00  1.408E+00
   1    8    5     9     2    3.5771E+00  0.0000E+00   3.5771E+00  0.000E+00  0.000E+00  0.000E+00  1.07947E+03  1.223E+00  4.000E+00  0.000E+00  1.408E+00



 UBDSV3 SAVING "           GW ET" ON UNIT  61 AT TIME STEP 10, STRESS PERIOD   5
 UBDSV3 SAVING "    UZF RECHARGE" ON UNIT  61 AT TIME STEP 10, STRESS PERIOD   5
 UBDSV3 SAVING " SURFACE LEAKAGE" ON UNIT  61 AT TIME STEP 10, STRESS PERIOD   5
 UBDSV3 SAVING "       HORT+DUNN" ON UNIT  61 AT TIME STEP 10, STRESS PERIOD   5
 UBDSV3 SAVING "  STORAGE CHANGE" ON UNIT  61 AT TIME STEP 10, STRESS PERIOD   5


UNSATURATED ZONE PACKAGE VOLUMETRIC BUDGET FOR  TIME STEP    10 STRESS PERIOD    5
  ------------------------------------------------------------------------------



     CUMULATIVE VOLUMES      L**3       RATES FOR THIS TIME STEP      L**3/T
     ------------------                 ------------------------

           IN:                                      IN:
           ---                                      ---
        INFILTRATION =    41335497.3235          INFILTRATION =           7.9847

          OUT:                                     OUT:
          ----                                     ----
              UZF ET =    22026860.7451                UZF ET =          10.2910
        UZF RECHARGE =       73224.0000          UZF RECHARGE =       0.0000E+00

            IN - OUT =    19235412.5784              IN - OUT =          -2.3064

          STORAGE:                                 STORAGE:
          --------                                 --------
      STORAGE CHANGE =    19235412.2467        STORAGE CHANGE =          -2.3064

 PERCENT DISCREPANCY IS DIFFERENCE BETWEEN IN-OUT MINUS CHANGE IN STORAGE
 DIVIDED BY THE AVERAGE OF IN AND OUT TIMES 100

 PERCENT DISCREPANCY =           0.00     PERCENT DISCREPANCY =           0.00






 

            AG WELLS      PERIOD    5   STEP  10
 AG WELL      1   LAYER   1   ROW     6   COL     4   RATE   -1.010100E-04
 AG WELL      2   LAYER   1   ROW     6   COL     5   RATE   -1.010100E-04
 AG WELL      3   LAYER   1   ROW     7   COL     4   RATE   -1.010100E-04
 AG WELL      4   LAYER   1   ROW     7   COL     5   RATE   -1.010100E-04
 AG WELL      5   LAYER   1   ROW     8   COL     4   RATE   -1.010100E-04
 AG WELL      6   LAYER   1   ROW     8   COL     5   RATE   -1.010100E-04
 
 

   DIVERSION SEGMENTS     PERIOD    5   STEP  10
 SEGMENT      9   RATE     3.57711    
 
 

        SW IRRIGATION     PERIOD    5   STEP  10
 SEGMENT      9   ROW     6   COL     4   RATE    0.596096    
 SEGMENT      9   ROW     6   COL     5   RATE    0.596096    
 SEGMENT      9   ROW     7   COL     4   RATE    0.596096    
 SEGMENT      9   ROW     7   COL     5   RATE    0.596096    
 SEGMENT      9   ROW     8   COL     4   RATE    0.596096    
 SEGMENT      9   ROW     8   COL     5   RATE    0.596096    
 
 

        GW IRRIGATION     PERIOD    5   STEP  10
 AG WELL      1   ROW     6   COL     4   RATE    1.010100E-04
 AG WELL      2   ROW     6   COL     5   RATE    1.010100E-04
 AG WELL      3   ROW     7   COL     4   RATE    1.010100E-04
 AG WELL      4   ROW     7   COL     5   RATE    1.010100E-04
 AG WELL      5   ROW     8   COL     4   RATE    1.010100E-04
 AG WELL      6   ROW     8   COL     5   RATE    1.010100E-04
 
1
  VOLUMETRIC BUDGET FOR AGRICULTURAL FIELDS AT  END OF TIME STEP   10, STRESS PERIOD   5
  ------------------------------------------------------------------------------

     CUMULATIVE VOLUMES      L**3       RATES FOR THIS TIME STEP      L**3/T
     ------------------                 ------------------------

           IN:                                      IN:
           ---                                      ---
               AG WELLS  =       28077.9062                 AG WELLS  =       6.0606E-04
      DIVERSION SEGMENTS =     2623139.5000        DIVERSION SEGMENTS =           3.5771
           GW IRRIGATION =           0.0000             GW IRRIGATION =           0.0000
           SW IRRIGATION =           0.0000             SW IRRIGATION =           0.0000
        SYSTEM LOSSES GW =           0.0000          SYSTEM LOSSES GW =           0.0000
        SYSTEM LOSSES SW =           0.0000          SYSTEM LOSSES SW =           0.0000

                TOTAL IN =     2651217.5000                  TOTAL IN =           3.5777

          OUT:                                     OUT:
          ----                                     ----
               AG WELLS  =           0.0000                 AG WELLS  =           0.0000
      DIVERSION SEGMENTS =           0.0000        DIVERSION SEGMENTS =           0.0000
           GW IRRIGATION =       28077.9062             GW IRRIGATION =       6.0606E-04
           SW IRRIGATION =     2623191.7500             SW IRRIGATION =           3.5772
        SYSTEM LOSSES GW =           0.0000          SYSTEM LOSSES GW =           0.0000
        SYSTEM LOSSES SW =           0.0000          SYSTEM LOSSES SW =           0.0000

               TOTAL OUT =     2651269.7500                 TOTAL OUT =           3.5778

                IN - OUT =         -52.2500                  IN - OUT =      -7.1287E-05

     PERCENT DISCREPANCY =          -0.00         PERCENT DISCREPANCY =          -0.00



1
  VOLUMETRIC BUDGET FOR ENTIRE MODEL AT END OF TIME STEP   10, STRESS PERIOD   5
  ------------------------------------------------------------------------------

     CUMULATIVE VOLUMES      L**3       RATES FOR THIS TIME STEP      L**3/T
     ------------------                 ------------------------

           IN:                                      IN:
           ---                                      ---
             STORAGE     =     5596681.5000               STORAGE     =           1.2335
       CONSTANT HEAD     =           0.0000         CONSTANT HEAD     =           0.0000
     HEAD DEP BOUNDS     =     2548162.5000       HEAD DEP BOUNDS     =           0.2879
      STREAM LEAKAGE     =   103310440.0000        STREAM LEAKAGE     =          11.2325
        UZF RECHARGE     =       73223.9531          UZF RECHARGE     =           0.0000
               GW ET     =           0.0000                 GW ET     =           0.0000
     SURFACE LEAKAGE     =           0.0000       SURFACE LEAKAGE     =           0.0000
           AG WELLS      =           0.0000             AG WELLS      =           0.0000

                TOTAL IN =   111528504.0000                  TOTAL IN =          12.7539

          OUT:                                     OUT:
          ----                                     ----
             STORAGE     =    18806086.0000               STORAGE     =           1.4119
       CONSTANT HEAD     =           0.0000         CONSTANT HEAD     =           0.0000
     HEAD DEP BOUNDS     =     2551560.0000       HEAD DEP BOUNDS     =           0.2891
      STREAM LEAKAGE     =    90146360.0000        STREAM LEAKAGE     =          11.0522
        UZF RECHARGE     =           0.0000          UZF RECHARGE     =           0.0000
               GW ET     =           0.0000                 GW ET     =           0.0000
     SURFACE LEAKAGE     =           0.0000       SURFACE LEAKAGE     =           0.0000
           AG WELLS      =       28077.9062             AG WELLS      =       6.0606E-04

               TOTAL OUT =   111532088.0000                 TOTAL OUT =          12.7538

                IN - OUT =       -3584.0000                  IN - OUT =       5.9128E-05

     PERCENT DISCREPANCY =          -0.00         PERCENT DISCREPANCY =           0.00






         TIME SUMMARY AT END OF TIME STEP   10 IN STRESS PERIOD    5
                    SECONDS     MINUTES      HOURS       DAYS        YEARS
                    -----------------------------------------------------------
   TIME STEP LENGTH  87667.      1461.1      24.352      1.0147     2.77799E-03
 STRESS PERIOD TIME 8.76667E+05  14611.      243.52      10.147     2.77799E-02
         TOTAL TIME 8.85306E+06 1.47551E+05  2459.2      102.47     0.28054    
1
 
 SOLVING FOR HEAD 
                                                   Max.-Head-Change                         Max.-Flux-Residual
  Residual-Control   Outer-Iter.   Inner-Iter.     Column Row Layer    Maximum-Head-Change  Column Row Layer    Maximum-Flux-Residual          L2-NORM 
          0                 1           2             2   13     1      -0.2166427288E-02       2   13    1        -0.1215563948E+00      0.3291738879E+00
          0                 2           2             4    7     1      -0.5608690607E-02       5    6    1        -0.3035531537E+00      0.7418150722E+00
          0                 3           2             4    7     1       0.5790075266E-02       5    6    1         0.3198178018E+00      0.7858526263E+00
          0                 4           2             4    7     1      -0.2304217492E-03       4    6    1        -0.1320338577E-01      0.3269323555E-01
          0                 5           1             4   13     1      -0.4167124756E-05       4   13    1        -0.2519611044E-03      0.5830302507E-03

    ------------------------------------------------
       NWT REQUIRED            5 OUTER ITERATIONS 
       AND A TOTAL OF          9 INNER ITERATIONS.
    ------------------------------------------------

 NO OUTPUT CONTROL FOR STRESS PERIOD    5   TIME STEP   11
 
 SOLVING FOR HEAD 
                                                   Max.-Head-Change                         Max.-Flux-Residual
  Residual-Control   Outer-Iter.   Inner-Iter.     Column Row Layer    Maximum-Head-Change  Column Row Layer    Maximum-Flux-Residual          L2-NORM 
          0                 1           2             2   13     1      -0.1915169799E-02       2   13    1        -0.1074315496E+00      0.3134715918E+00
          0                 2           2             4    7     1      -0.5610503600E-02       5    6    1        -0.3035944295E+00      0.7421576131E+00
          0                 3           2             4    7     1       0.5791752261E-02       5    6    1         0.3199061940E+00      0.7860688266E+00
          0                 4           2             4    7     1      -0.2304931646E-03       4    6    1        -0.1322783922E-01      0.3270743530E-01
          0                 5           1             4   13     1      -0.4147718376E-05       4   13    1        -0.2507522368E-03      0.5831593624E-03

    ------------------------------------------------
       NWT REQUIRED            5 OUTER ITERATIONS 
       AND A TOTAL OF          9 INNER ITERATIONS.
    ------------------------------------------------

 NO OUTPUT CONTROL FOR STRESS PERIOD    5   TIME STEP   12
 
 SOLVING FOR HEAD 
                                                   Max.-Head-Change                         Max.-Flux-Residual
  Residual-Control   Outer-Iter.   Inner-Iter.     Column Row Layer    Maximum-Head-Change  Column Row Layer    Maximum-Flux-Residual          L2-NORM 
          0                 1           2             2   13     1      -0.1682223059E-02       2   13    1        -0.9433708631E-01      0.3001197771E+00
          0                 2           2             4    7     1      -0.5595097898E-02       5    6    1        -0.3027137627E+00      0.7402236681E+00
          0                 3           2             4    7     1       0.5774870973E-02       5    6    1         0.3189702267E+00      0.7837693903E+00
          0                 4           2             4    7     1      -0.2297035436E-03       4    6    1        -0.1320326404E-01      0.3259992623E-01
          0                 5           1             4   13     1      -0.4207213066E-05       4   13    1        -0.2543557694E-03      0.5940170121E-03

    ------------------------------------------------
       NWT REQUIRED            5 OUTER ITERATIONS 
       AND A TOTAL OF          9 INNER ITERATIONS.
    ------------------------------------------------

 NO OUTPUT CONTROL FOR STRESS PERIOD    5   TIME STEP   13
 
 SOLVING FOR HEAD 
                                                   Max.-Head-Change                         Max.-Flux-Residual
  Residual-Control   Outer-Iter.   Inner-Iter.     Column Row Layer    Maximum-Head-Change  Column Row Layer    Maximum-Flux-Residual          L2-NORM 
          0                 1           2             1   13     1      -0.1486010343E-02       2   13    1        -0.8220567390E-01      0.2888836652E+00
          0                 2           2             4    7     1      -0.5604175148E-02       5    6    1        -0.3031507243E+00      0.7415199248E+00
          0                 3           2             4    7     1       0.5784276551E-02       5    6    1         0.3194856879E+00      0.7850365657E+00
          0                 4           2             4    7     1      -0.2301041294E-03       4    6    1        -0.1324610698E-01      0.3266136030E-01
          0                 5           1             4   13     1      -0.4183735788E-05       4   13    1        -0.2529391886E-03      0.5908469064E-03

    ------------------------------------------------
       NWT REQUIRED            5 OUTER ITERATIONS 
       AND A TOTAL OF          9 INNER ITERATIONS.
    ------------------------------------------------

 NO OUTPUT CONTROL FOR STRESS PERIOD    5   TIME STEP   14
 
 SOLVING FOR HEAD 
                                                   Max.-Head-Change                         Max.-Flux-Residual
  Residual-Control   Outer-Iter.   Inner-Iter.     Column Row Layer    Maximum-Head-Change  Column Row Layer    Maximum-Flux-Residual          L2-NORM 
          0                 1           2             3    2     1       0.1448713768E-02       1   13    1        -0.7582821849E-01      0.2795305629E+00
          0                 2           2             4    7     1      -0.5614365026E-02       5    6    1        -0.3036512875E+00      0.7429630641E+00
          0                 3           2             4    7     1       0.5795206245E-02       5    6    1         0.3200882430E+00      0.7865106990E+00
          0                 4           2             4    7     1      -0.2305972336E-03       5    6    1        -0.1309163698E-01      0.3265911672E-01
          0                 5           1             4   13     1      -0.4134944646E-05       4   13    1        -0.2499897073E-03      0.5812155503E-03

    ------------------------------------------------
       NWT REQUIRED            5 OUTER ITERATIONS 
       AND A TOTAL OF          9 INNER ITERATIONS.
    ------------------------------------------------

 NO OUTPUT CONTROL FOR STRESS PERIOD    5   TIME STEP   15
 
 SOLVING FOR HEAD 
                                                   Max.-Head-Change                         Max.-Flux-Residual
  Residual-Control   Outer-Iter.   Inner-Iter.     Column Row Layer    Maximum-Head-Change  Column Row Layer    Maximum-Flux-Residual          L2-NORM 
          0                 1           2             3    2     1       0.1441567972E-02       3    2    1         0.7516340289E-01      0.2718151666E+00
          0                 2           2             4    7     1      -0.5614118961E-02       5    6    1        -0.3035906308E+00      0.7430197290E+00
          0                 3           2             4    7     1       0.5794789983E-02       5    6    1         0.3200619433E+00      0.7864405690E+00
          0                 4           2             4    7     1      -0.2305806699E-03       5    6    1        -0.1309056135E-01      0.3265456124E-01
          0                 5           1             4   13     1      -0.4136057839E-05       4   13    1        -0.2500619094E-03      0.5806698942E-03

    ------------------------------------------------
       NWT REQUIRED            5 OUTER ITERATIONS 
       AND A TOTAL OF          9 INNER ITERATIONS.
    ------------------------------------------------

 NO OUTPUT CONTROL FOR STRESS PERIOD    5   TIME STEP   16
 
 SOLVING FOR HEAD 
                                                   Max.-Head-Change                         Max.-Flux-Residual
  Residual-Control   Outer-Iter.   Inner-Iter.     Column Row Layer    Maximum-Head-Change  Column Row Layer    Maximum-Flux-Residual          L2-NORM 
          0                 1           2             3    2     1       0.1434539478E-02       3    2    1         0.7479289892E-01      0.2655465017E+00
          0                 2           2             4    7     1      -0.5591445244E-02       5    6    1        -0.3023295278E+00      0.7401098387E+00
          0                 3           2             4    7     1       0.5770040947E-02       5    6    1         0.3186925736E+00      0.7830705106E+00
          0                 4           2             4    7     1      -0.2294166152E-03       5    6    1        -0.1302438143E-01      0.3248594115E-01
          0                 5           1             4   13     1      -0.4191746705E-05       4   13    1        -0.2534135074E-03      0.5965026267E-03

    ------------------------------------------------
       NWT REQUIRED            5 OUTER ITERATIONS 
       AND A TOTAL OF          9 INNER ITERATIONS.
    ------------------------------------------------

 NO OUTPUT CONTROL FOR STRESS PERIOD    5   TIME STEP   17
 
 SOLVING FOR HEAD 
                                                   Max.-Head-Change                         Max.-Flux-Residual
  Residual-Control   Outer-Iter.   Inner-Iter.     Column Row Layer    Maximum-Head-Change  Column Row Layer    Maximum-Flux-Residual          L2-NORM 
          0                 1           2             3    2     1       0.1427541299E-02       3    2    1         0.7442405742E-01      0.2605399697E+00
          0                 2           2             4    7     1      -0.5590835065E-02       5    6    1        -0.3022555922E+00      0.7401104251E+00
          0                 3           2             4    7     1       0.5765893284E-02       5    6    1         0.3184607117E+00      0.7824988905E+00
          0                 4           2             4    7     1      -0.2287046834E-03       5    6    1        -0.1298386411E-01      0.3237805349E-01
          0                 5           1             4   13     1      -0.4506657060E-05       4   13    1        -0.2724561427E-03      0.6650083233E-03

    ------------------------------------------------
       NWT REQUIRED            5 OUTER ITERATIONS 
       AND A TOTAL OF          9 INNER ITERATIONS.
    ------------------------------------------------

 NO OUTPUT CONTROL FOR STRESS PERIOD    5   TIME STEP   18
 
 SOLVING FOR HEAD 
                                                   Max.-Head-Change                         Max.-Flux-Residual
  Residual-Control   Outer-Iter.   Inner-Iter.     Column Row Layer    Maximum-Head-Change  Column Row Layer    Maximum-Flux-Residual          L2-NORM 
          0                 1           2             3    2     1       0.1420741350E-02       3    2    1         0.7406562696E-01      0.2565893248E+00
          0                 2           2             4    7     1      -0.5598399292E-02       5    6    1        -0.3026230414E+00      0.7411856674E+00
          0                 3           2             4    7     1       0.5773356398E-02       5    6    1         0.3188700188E+00      0.7835009551E+00
          0                 4           2             4    7     1      -0.2289547323E-03       5    6    1        -0.1299794245E-01      0.3241148138E-01
          0                 5           1             4   13     1      -0.4520569306E-05       4   13    1        -0.2732805460E-03      0.6712243576E-03

    ------------------------------------------------
       NWT REQUIRED            5 OUTER ITERATIONS 
       AND A TOTAL OF          9 INNER ITERATIONS.
    ------------------------------------------------

 NO OUTPUT CONTROL FOR STRESS PERIOD    5   TIME STEP   19
 
 SOLVING FOR HEAD 
                                                   Max.-Head-Change                         Max.-Flux-Residual
  Residual-Control   Outer-Iter.   Inner-Iter.     Column Row Layer    Maximum-Head-Change  Column Row Layer    Maximum-Flux-Residual          L2-NORM 
          0                 1           2             3    2     1       0.1414052942E-02       3    2    1         0.7371305490E-01      0.2535341667E+00
          0                 2           2             4    7     1      -0.5571752824E-02       5    6    1        -0.3011534482E+00      0.7377363009E+00
          0                 3           2             4    7     1       0.5742972972E-02       5    6    1         0.3171899290E+00      0.7794270049E+00
          0                 4           2             4    7     1      -0.2273396002E-03       5    6    1        -0.1290617949E-01      0.3208415113E-01
          0                 5           1             2   13     1      -0.4263073402E-05       2   13    1        -0.2528367922E-03      0.6764595710E-03

    ------------------------------------------------
       NWT REQUIRED            5 OUTER ITERATIONS 
       AND A TOTAL OF          9 INNER ITERATIONS.
    ------------------------------------------------

 NO OUTPUT CONTROL FOR STRESS PERIOD    5   TIME STEP   20
 
 SOLVING FOR HEAD 
                                                   Max.-Head-Change                         Max.-Flux-Residual
  Residual-Control   Outer-Iter.   Inner-Iter.     Column Row Layer    Maximum-Head-Change  Column Row Layer    Maximum-Flux-Residual          L2-NORM 
          0                 1           2             3    2     1       0.1407388878E-02       3    2    1         0.7336184642E-01      0.2512426557E+00
          0                 2           2             4    7     1      -0.5584553041E-02       5    6    1        -0.3018061093E+00      0.7394955771E+00
          0                 3           2             4    7     1       0.5754700772E-02       5    6    1         0.3178349598E+00      0.7810112459E+00
          0                 4           2             4    7     1      -0.2275611764E-03       5    6    1        -0.1291865355E-01      0.3211212045E-01
          0                 5           1             2   13     1      -0.4368518563E-05       2   13    1        -0.2590658232E-03      0.7076954472E-03

    ------------------------------------------------
       NWT REQUIRED            5 OUTER ITERATIONS 
       AND A TOTAL OF          9 INNER ITERATIONS.
    ------------------------------------------------

 NO OUTPUT CONTROL FOR STRESS PERIOD    5   TIME STEP   21
 
 SOLVING FOR HEAD 
                                                   Max.-Head-Change                         Max.-Flux-Residual
  Residual-Control   Outer-Iter.   Inner-Iter.     Column Row Layer    Maximum-Head-Change  Column Row Layer    Maximum-Flux-Residual          L2-NORM 
          0                 1           2             3    2     1       0.1400916417E-02       3    2    1         0.7302073970E-01      0.2495673222E+00
          0                 2           2             4    7     1      -0.5590603719E-02       5    6    1        -0.3020979217E+00      0.7403600258E+00
          0                 3           2             4    7     1       0.5769598718E-02       5    6    1         0.3186551221E+00      0.7830169252E+00
          0                 4           2             4    7     1      -0.2295782811E-03       5    6    1        -0.1303302218E-01      0.3240772090E-01
          0                 5           1             2   13     1      -0.3618345826E-05       2   13    1        -0.2145730796E-03      0.5323297191E-03

    ------------------------------------------------
       NWT REQUIRED            5 OUTER ITERATIONS 
       AND A TOTAL OF          9 INNER ITERATIONS.
    ------------------------------------------------

 NO OUTPUT CONTROL FOR STRESS PERIOD    5   TIME STEP   22
 
 SOLVING FOR HEAD 
                                                   Max.-Head-Change                         Max.-Flux-Residual
  Residual-Control   Outer-Iter.   Inner-Iter.     Column Row Layer    Maximum-Head-Change  Column Row Layer    Maximum-Flux-Residual          L2-NORM 
          0                 1           2             3    2     1       0.1394465283E-02       3    2    1         0.7268072788E-01      0.2484146943E+00
          0                 2           2             4    7     1      -0.5591082479E-02       5    6    1        -0.3020915630E+00      0.7404811246E+00
          0                 3           2             4    7     1       0.5770008072E-02       5    6    1         0.3186754790E+00      0.7831063802E+00
          0                 4           2             4    7     1      -0.2295945698E-03       5    6    1        -0.1303385479E-01      0.3234080787E-01
          0                 5           1             2   13     1      -0.3648453387E-05       2   13    1        -0.2174212987E-03      0.4986211153E-03

    ------------------------------------------------
       NWT REQUIRED            5 OUTER ITERATIONS 
       AND A TOTAL OF          9 INNER ITERATIONS.
    ------------------------------------------------

 NO OUTPUT CONTROL FOR STRESS PERIOD    5   TIME STEP   23
 
 SOLVING FOR HEAD 
                                                   Max.-Head-Change                         Max.-Flux-Residual
  Residual-Control   Outer-Iter.   Inner-Iter.     Column Row Layer    Maximum-Head-Change  Column Row Layer    Maximum-Flux-Residual          L2-NORM 
          0                 1           2             3    2     1       0.1388117288E-02       3    2    1         0.7234624157E-01      0.2476736773E+00
          0                 2           2             4    7     1      -0.5581107101E-02       5    6    1        -0.3015236670E+00      0.7392170659E+00
          0                 3           2             4    7     1       0.5751920895E-02       5    6    1         0.3176746809E+00      0.7806524270E+00
          0                 4           2             4    7     1      -0.2276228222E-03       5    6    1        -0.1292187330E-01      0.3205194460E-01
          0                 5           1             2   13     1      -0.4296590006E-05       2   13    1        -0.2558376482E-03      0.6534336317E-03

    ------------------------------------------------
       NWT REQUIRED            5 OUTER ITERATIONS 
       AND A TOTAL OF          9 INNER ITERATIONS.
    ------------------------------------------------

 NO OUTPUT CONTROL FOR STRESS PERIOD    5   TIME STEP   24
 
 SOLVING FOR HEAD 
                                                   Max.-Head-Change                         Max.-Flux-Residual
  Residual-Control   Outer-Iter.   Inner-Iter.     Column Row Layer    Maximum-Head-Change  Column Row Layer    Maximum-Flux-Residual          L2-NORM 
          0                 1           2             3    2     1       0.1381956358E-02       3    2    1         0.7202152293E-01      0.2472794872E+00
          0                 2           2             4    7     1      -0.5592116277E-02       5    6    1        -0.3020866409E+00      0.7407231831E+00
          0                 3           2             4    7     1       0.5763854222E-02       5    6    1         0.3183315137E+00      0.7823152422E+00
          0                 4           2             4    7     1      -0.2281851940E-03       5    6    1        -0.1295370488E-01      0.3205248173E-01
          0                 5           1             4    7     1       0.3740206509E-05       5    6    1         0.2182049170E-03      0.6045809098E-03

    ------------------------------------------------
       NWT REQUIRED            5 OUTER ITERATIONS 
       AND A TOTAL OF          9 INNER ITERATIONS.
    ------------------------------------------------

 NO OUTPUT CONTROL FOR STRESS PERIOD    5   TIME STEP   25
 
 SOLVING FOR HEAD 
                                                   Max.-Head-Change                         Max.-Flux-Residual
  Residual-Control   Outer-Iter.   Inner-Iter.     Column Row Layer    Maximum-Head-Change  Column Row Layer    Maximum-Flux-Residual          L2-NORM 
          0                 1           2             3    2     1       0.1375810481E-02       3    2    1         0.7169766357E-01      0.2471489919E+00
          0                 2           2             4    7     1      -0.5592231182E-02       5    6    1        -0.3020642053E+00      0.7407845333E+00
          0                 3           2             4    7     1       0.5763918501E-02       5    6    1         0.3183330626E+00      0.7823189058E+00
          0                 4           2             4    7     1      -0.2281905525E-03       5    6    1        -0.1295392719E-01      0.3205264530E-01
          0                 5           1             4    7     1       0.3738909377E-05       5    6    1         0.2181282116E-03      0.6035890048E-03

    ------------------------------------------------
       NWT REQUIRED            5 OUTER ITERATIONS 
       AND A TOTAL OF          9 INNER ITERATIONS.
    ------------------------------------------------

 NO OUTPUT CONTROL FOR STRESS PERIOD    5   TIME STEP   26
 
 SOLVING FOR HEAD 
                                                   Max.-Head-Change                         Max.-Flux-Residual
  Residual-Control   Outer-Iter.   Inner-Iter.     Column Row Layer    Maximum-Head-Change  Column Row Layer    Maximum-Flux-Residual          L2-NORM 
          0                 1           2             3    2     1       0.1369762351E-02       3    2    1         0.7137900464E-01      0.2472365271E+00
          0                 2           2             4    7     1      -0.5592400489E-02       5    6    1        -0.3020477100E+00      0.7408507392E+00
          0                 3           2             4    7     1       0.5764065838E-02       5    6    1         0.3183394081E+00      0.7823341523E+00
          0                 4           2             4    7     1      -0.2282020170E-03       5    6    1        -0.1295450457E-01      0.3205409281E-01
          0                 5           1             4    7     1       0.3734962646E-05       5    6    1         0.2178971226E-03      0.6081268561E-03

    ------------------------------------------------
       NWT REQUIRED            5 OUTER ITERATIONS 
       AND A TOTAL OF          9 INNER ITERATIONS.
    ------------------------------------------------

 NO OUTPUT CONTROL FOR STRESS PERIOD    5   TIME STEP   27
 
 SOLVING FOR HEAD 
                                                   Max.-Head-Change                         Max.-Flux-Residual
  Residual-Control   Outer-Iter.   Inner-Iter.     Column Row Layer    Maximum-Head-Change  Column Row Layer    Maximum-Flux-Residual          L2-NORM 
          0                 1           2             3    2     1       0.1363895212E-02       3    2    1         0.7106983392E-01      0.2474870033E+00
          0                 2           2             4    7     1      -0.5592625827E-02       5    6    1        -0.3020337253E+00      0.7409214027E+00
          0                 3           2             4    7     1       0.5764297603E-02       5    6    1         0.3183503799E+00      0.7823612411E+00
          0                 4           2             4    7     1      -0.2282196421E-03       5    6    1        -0.1295543017E-01      0.3205601384E-01
          0                 5           1             4    7     1       0.3727686163E-05       5    6    1         0.2174717683E-03      0.6020096660E-03

    ------------------------------------------------
       NWT REQUIRED            5 OUTER ITERATIONS 
       AND A TOTAL OF          9 INNER ITERATIONS.
    ------------------------------------------------

 NO OUTPUT CONTROL FOR STRESS PERIOD    5   TIME STEP   28
 
 SOLVING FOR HEAD 
                                                   Max.-Head-Change                         Max.-Flux-Residual
  Residual-Control   Outer-Iter.   Inner-Iter.     Column Row Layer    Maximum-Head-Change  Column Row Layer    Maximum-Flux-Residual          L2-NORM 
          0                 1           2             4   13     1       0.2904715153E-02       4   13    1         0.1669949729E+00      0.4062999711E+00
          0                 2           2             4    7     1      -0.5592915030E-02       5    6    1        -0.3020241009E+00      0.7443820898E+00
          0                 3           2             4    7     1       0.5764617212E-02       5    6    1         0.3183662662E+00      0.7822572639E+00
          0                 4           2             4    7     1      -0.2282442637E-03       5    6    1        -0.1295675545E-01      0.3201212231E-01
          0                 5           1             4    7     1       0.3718450763E-05       5    6    1         0.2169322283E-03      0.5831838210E-03

    ------------------------------------------------
       NWT REQUIRED            5 OUTER ITERATIONS 
       AND A TOTAL OF          9 INNER ITERATIONS.
    ------------------------------------------------

 NO OUTPUT CONTROL FOR STRESS PERIOD    5   TIME STEP   29
 
 SOLVING FOR HEAD 
                                                   Max.-Head-Change                         Max.-Flux-Residual
  Residual-Control   Outer-Iter.   Inner-Iter.     Column Row Layer    Maximum-Head-Change  Column Row Layer    Maximum-Flux-Residual          L2-NORM 
          0                 1           2             4   13     1       0.1102252501E-01       4   13    1         0.6336683795E+00      0.1190358554E+01
          0                 2           2             4    7     1      -0.5593292541E-02       5    6    1        -0.3020388438E+00      0.7593125446E+00
          0                 3           2             4    7     1       0.5771833313E-02       5    6    1         0.3187642644E+00      0.7829609709E+00
          0                 4           2             4    7     1      -0.2296671980E-03       5    6    1        -0.1303748619E-01      0.3218610295E-01
          0                 5           1             4    7     1       0.2831895007E-05       5    6    1         0.1652251117E-03      0.4333828331E-03

    ------------------------------------------------
       NWT REQUIRED            5 OUTER ITERATIONS 
       AND A TOTAL OF          9 INNER ITERATIONS.
    ------------------------------------------------

 NO OUTPUT CONTROL FOR STRESS PERIOD    5   TIME STEP   30



 STREAM LISTING     PERIOD      5   STEP       30

 LAYER ROW COL. STREAM  RCH.  FLOW INTO     FLOW TO   FLOW OUT OF   OVRLND.     DIRECT     STREAM       STREAM     STREAM     STREAM   STREAMBED  STREAMBED
                SEG.NO.  NO.  STRM. RCH.    AQUIFER    STRM. RCH.    RUNOFF     PRECIP       ET          HEAD       DEPTH      WIDTH   CONDCTNC.   GRADIENT

   1    1    1     1     1    3.7125E+01  2.9395E-01   3.6831E+01  0.000E+00  0.000E+00  0.000E+00  1.09436E+03  1.309E+00  1.516E+01  6.821E-02  1.436E+00
   1    2    2     1     2    3.6831E+01  4.5518E-01   3.6376E+01  0.000E+00  0.000E+00  0.000E+00  1.08936E+03  1.306E+00  1.510E+01  1.057E-01  1.435E+00
   1    3    3     1     3    3.6376E+01  3.8814E-01   3.5988E+01  0.000E+00  0.000E+00  0.000E+00  1.08372E+03  1.303E+00  1.503E+01  9.020E-02  1.434E+00
   1    3    4     1     4    3.5988E+01  3.5737E-01   3.5631E+01  0.000E+00  0.000E+00  0.000E+00  1.07871E+03  1.300E+00  1.497E+01  8.311E-02  1.433E+00
   1    4    5     2     1    3.3631E+01  3.4618E-01   3.3284E+01  0.000E+00  0.000E+00  0.000E+00  1.07337E+03  1.438E+00  1.200E+01  7.800E-02  1.479E+00
   1    5    6     2     2    3.3284E+01  2.6582E-01   3.3019E+01  0.000E+00  0.000E+00  0.000E+00  1.06794E+03  1.430E+00  1.200E+01  6.000E-02  1.477E+00
   1    6    6     2     3    3.3019E+01  2.6541E-01   3.2753E+01  0.000E+00  0.000E+00  0.000E+00  1.06322E+03  1.423E+00  1.200E+01  6.000E-02  1.474E+00
   1    7    6     2     4    3.2753E+01  2.6499E-01   3.2488E+01  0.000E+00  0.000E+00  0.000E+00  1.05849E+03  1.417E+00  1.200E+01  6.000E-02  1.472E+00
   1    8    6     2     5    3.2488E+01  2.6458E-01   3.2224E+01  0.000E+00  0.000E+00  0.000E+00  1.05377E+03  1.410E+00  1.200E+01  6.000E-02  1.470E+00
   1    3    5     3     1    2.0000E+00  2.8252E-01   1.7175E+00  0.000E+00  0.000E+00  0.000E+00  1.07555E+03  1.909E+00  9.636E+00  7.227E-02  1.955E+00
   1    3    6     3     2    1.7175E+00  2.4905E-01   1.4684E+00  0.000E+00  0.000E+00  0.000E+00  1.07264E+03  1.727E+00  8.909E+00  6.682E-02  1.864E+00
   1    3    7     3     3    1.4684E+00  1.9718E-01   1.2712E+00  0.000E+00  0.000E+00  0.000E+00  1.06987E+03  1.555E+00  8.218E+00  5.547E-02  1.777E+00
   1    4    8     3     4    1.2712E+00  2.2567E-01   1.0456E+00  0.000E+00  0.000E+00  0.000E+00  1.06682E+03  1.364E+00  7.455E+00  6.709E-02  1.682E+00
   1    5    8     3     5    1.0456E+00  1.5790E-01   8.8768E-01  0.000E+00  0.000E+00  0.000E+00  1.06362E+03  1.164E+00  6.655E+00  4.991E-02  1.582E+00
   1    6    8     3     6    8.8768E-01  5.5980E-02   8.3170E-01  0.000E+00  0.000E+00  0.000E+00  1.06158E+03  1.036E+00  6.145E+00  1.844E-02  1.518E+00
   1    5   10     4     1    1.0000E+01  9.0919E-02   9.9091E+00  0.000E+00  0.000E+00  0.000E+00  1.07836E+03  6.368E-01  1.000E+01  2.500E-02  1.212E+00
   1    5    9     4     2    9.9091E+00  1.8158E-01   9.7275E+00  0.000E+00  0.000E+00  0.000E+00  1.07154E+03  6.315E-01  1.000E+01  5.000E-02  1.211E+00
   1    6    8     4     3    9.7275E+00  1.2689E-01   9.6006E+00  0.000E+00  0.000E+00  0.000E+00  1.06381E+03  6.256E-01  1.000E+01  3.500E-02  1.209E+00
   1    6    8     5     1    1.0432E+01  2.2686E-01   1.0205E+01  0.000E+00  0.000E+00  0.000E+00  1.05868E+03  6.790E-01  1.542E+01  6.166E-02  1.226E+00
   1    7    7     5     2    1.0205E+01  2.7894E-01   9.9265E+00  0.000E+00  0.000E+00  0.000E+00  1.05417E+03  6.732E-01  1.519E+01  7.594E-02  1.224E+00
   1    8    7     5     3    9.9265E+00  1.9221E-01   9.7343E+00  0.000E+00  0.000E+00  0.000E+00  1.04992E+03  6.676E-01  1.497E+01  5.241E-02  1.223E+00
   1    8    6     5     4    9.7343E+00  1.3577E-01   9.5985E+00  0.000E+00  0.000E+00  0.000E+00  1.04691E+03  6.637E-01  1.482E+01  3.706E-02  1.221E+00
   1    9    6     6     1    3.8251E+01  2.7436E-01   3.7976E+01  0.000E+00  0.000E+00  0.000E+00  1.04430E+03  1.573E+00  1.200E+01  6.000E-02  1.524E+00
   1   10    7     6     2    3.7976E+01  2.7395E-01   3.7702E+01  0.000E+00  0.000E+00  0.000E+00  1.03975E+03  1.566E+00  1.200E+01  6.000E-02  1.522E+00
   1   11    7     6     3    3.7702E+01  2.7354E-01   3.7429E+01  0.000E+00  0.000E+00  0.000E+00  1.03520E+03  1.559E+00  1.200E+01  6.000E-02  1.520E+00
   1   12    7     6     4    3.7429E+01  2.7313E-01   3.7156E+01  0.000E+00  0.000E+00  0.000E+00  1.03064E+03  1.552E+00  1.200E+01  6.000E-02  1.517E+00
   1   13    7     6     5    3.7156E+01  1.4609E-02   3.7141E+01  0.000E+00  0.000E+00  0.000E+00  1.02746E+03  1.549E+00  1.200E+01  2.400E-02  2.029E-01
   1   14    9     7     1    1.5000E+02  1.3674E+00   1.4863E+02  0.000E+00  0.000E+00  0.000E+00  1.03987E+03  2.288E+00  5.529E+01  5.593E-01  8.150E-01
   1   13    8     7     2    1.4863E+02  1.9165E+00   1.4672E+02  0.000E+00  0.000E+00  0.000E+00  1.03478E+03  2.279E+00  5.526E+01  6.148E-01  1.039E+00
   1   13    7     7     3    1.4672E+02  1.5858E+00   1.4513E+02  0.000E+00  0.000E+00  0.000E+00  1.02969E+03  2.270E+00  5.521E+01  5.584E-01  9.466E-01
   1   13    6     8     1    1.8227E+02  1.0806E+00   1.8119E+02  0.000E+00  0.000E+00  0.000E+00  1.02490E+03  3.027E+00  4.389E+01  4.473E-01  8.053E-01
   1   13    5     8     2    1.8119E+02  2.9338E-01   1.8090E+02  0.000E+00  0.000E+00  0.000E+00  1.01865E+03  3.023E+00  4.383E+01  4.466E-01  2.190E-01
   1   13    4     8     3    1.8090E+02 -1.7875E+00   1.8268E+02  0.000E+00  0.000E+00  0.000E+00  1.01240E+03  3.027E+00  4.390E+01  4.473E+00 -1.332E-01
   1   13    3     8     4    1.8268E+02 -3.1362E+00   1.8582E+02  0.000E+00  0.000E+00  0.000E+00  1.00617E+03  3.043E+00  4.412E+01  4.496E+00 -2.325E-01
   1   13    2     8     5    1.8582E+02 -2.0934E+00   1.8791E+02  0.000E+00  0.000E+00  0.000E+00  9.99934E+02  3.059E+00  4.435E+01  4.520E+00 -1.544E-01
   1   13    1     8     6    1.8791E+02 -1.7347E+00   1.8965E+02  0.000E+00  0.000E+00  0.000E+00  9.94946E+02  3.071E+00  4.452E+01  2.722E+00 -2.124E-01
   1    8    6     9     1    3.5715E+00  0.0000E+00   3.5715E+00  0.000E+00  0.000E+00  0.000E+00  1.07997E+03  1.222E+00  4.000E+00  0.000E+00  1.407E+00
   1    8    5     9     2    3.5715E+00  0.0000E+00   3.5715E+00  0.000E+00  0.000E+00  0.000E+00  1.07947E+03  1.222E+00  4.000E+00  0.000E+00  1.407E+00





UNSATURATED ZONE PACKAGE VOLUMETRIC BUDGET FOR  TIME STEP    30 STRESS PERIOD    5
  ------------------------------------------------------------------------------



     CUMULATIVE VOLUMES      L**3       RATES FOR THIS TIME STEP      L**3/T
     ------------------                 ------------------------

           IN:                                      IN:
           ---                                      ---
        INFILTRATION =    55333546.8899          INFILTRATION =           7.9790

          OUT:                                     OUT:
          ----                                     ----
              UZF ET =    35804060.4717                UZF ET =           7.8609
        UZF RECHARGE =       73224.0000          UZF RECHARGE =       0.0000E+00

            IN - OUT =    19456262.4182              IN - OUT =           0.1181

          STORAGE:                                 STORAGE:
          --------                                 --------
      STORAGE CHANGE =    19456262.0260        STORAGE CHANGE =           0.1181

 PERCENT DISCREPANCY IS DIFFERENCE BETWEEN IN-OUT MINUS CHANGE IN STORAGE
 DIVIDED BY THE AVERAGE OF IN AND OUT TIMES 100

 PERCENT DISCREPANCY =           0.00     PERCENT DISCREPANCY =           0.00






1
  VOLUMETRIC BUDGET FOR AGRICULTURAL FIELDS AT  END OF TIME STEP   30, STRESS PERIOD   5
  ------------------------------------------------------------------------------

     CUMULATIVE VOLUMES      L**3       RATES FOR THIS TIME STEP      L**3/T
     ------------------                 ------------------------

           IN:                                      IN:
           ---                                      ---
               AG WELLS  =       29478.1953                 AG WELLS  =           0.0000
      DIVERSION SEGMENTS =     8893247.0000        DIVERSION SEGMENTS =           3.5715
           GW IRRIGATION =           0.0000             GW IRRIGATION =           0.0000
           SW IRRIGATION =           0.0000             SW IRRIGATION =           0.0000
        SYSTEM LOSSES GW =           0.0000          SYSTEM LOSSES GW =           0.0000
        SYSTEM LOSSES SW =           0.0000          SYSTEM LOSSES SW =           0.0000

                TOTAL IN =     8922725.0000                  TOTAL IN =           3.5715

          OUT:                                     OUT:
          ----                                     ----
               AG WELLS  =           0.0000                 AG WELLS  =           0.0000
      DIVERSION SEGMENTS =           0.0000        DIVERSION SEGMENTS =           0.0000
           GW IRRIGATION =       29478.1953             GW IRRIGATION =           0.0000
           SW IRRIGATION =     8893426.0000             SW IRRIGATION =           3.5715
        SYSTEM LOSSES GW =           0.0000          SYSTEM LOSSES GW =           0.0000
        SYSTEM LOSSES SW =           0.0000          SYSTEM LOSSES SW =           0.0000

               TOTAL OUT =     8922904.0000                 TOTAL OUT =           3.5715

                IN - OUT =        -179.0000                  IN - OUT =      -7.1287E-05

     PERCENT DISCREPANCY =          -0.00         PERCENT DISCREPANCY =          -0.00



1
  VOLUMETRIC BUDGET FOR ENTIRE MODEL AT END OF TIME STEP   30, STRESS PERIOD   5
  ------------------------------------------------------------------------------

     CUMULATIVE VOLUMES      L**3       RATES FOR THIS TIME STEP      L**3/T
     ------------------                 ------------------------

           IN:                                      IN:
           ---                                      ---
             STORAGE     =     7105281.0000               STORAGE     =           0.4134
       CONSTANT HEAD     =           0.0000         CONSTANT HEAD     =           0.0000
     HEAD DEP BOUNDS     =     3052947.5000       HEAD DEP BOUNDS     =           0.2879
      STREAM LEAKAGE     =   123176288.0000        STREAM LEAKAGE     =          12.6564
        UZF RECHARGE     =       73223.9531          UZF RECHARGE     =           0.0000
               GW ET     =           0.0000                 GW ET     =           0.0000
     SURFACE LEAKAGE     =           0.0000       SURFACE LEAKAGE     =           0.0000
           AG WELLS      =           0.0000             AG WELLS      =           0.0000

                TOTAL IN =   133407736.0000                  TOTAL IN =          13.3577

          OUT:                                     OUT:
          ----                                     ----
             STORAGE     =    21508402.0000               STORAGE     =           4.3177
       CONSTANT HEAD     =           0.0000         CONSTANT HEAD     =           0.0000
     HEAD DEP BOUNDS     =     3057247.2500       HEAD DEP BOUNDS     =           0.2881
      STREAM LEAKAGE     =   108816104.0000        STREAM LEAKAGE     =           8.7519
        UZF RECHARGE     =           0.0000          UZF RECHARGE     =           0.0000
               GW ET     =           0.0000                 GW ET     =           0.0000
     SURFACE LEAKAGE     =           0.0000       SURFACE LEAKAGE     =           0.0000
           AG WELLS      =       29478.1953             AG WELLS      =           0.0000

               TOTAL OUT =   133411232.0000                 TOTAL OUT =          13.3577

                IN - OUT =       -3496.0000                  IN - OUT =       2.2888E-05

     PERCENT DISCREPANCY =          -0.00         PERCENT DISCREPANCY =           0.00






         TIME SUMMARY AT END OF TIME STEP   30 IN STRESS PERIOD    5
                    SECONDS     MINUTES      HOURS       DAYS        YEARS
                    -----------------------------------------------------------
   TIME STEP LENGTH  87667.      1461.1      24.352      1.0147     2.77799E-03
 STRESS PERIOD TIME 2.63000E+06  43833.      730.56      30.440     8.33397E-02
         TOTAL TIME 1.06064E+07 1.76773E+05  2946.2      122.76     0.33610    
1
1
                            STRESS PERIOD NO.    6, LENGTH =   2630000.    
                            -----------------------------------------------

                              NUMBER OF TIME STEPS =    30

                               MULTIPLIER FOR DELT =     1.000

                            INITIAL TIME STEP SIZE =   87666.66    

 REUSING NON-PARAMETER GHB CELLS FROM LAST STRESS PERIOD

      2 GHB CELLS

 REUSING STREAM SEGMENT DATA FROM LAST STRESS PERIOD



            AREAL INFILTRATION RATE
 READING ON UNIT   19 WITH FORMAT: (10F4.0)            

            1           2           3           4           5           6           7           8           9          10
 ........................................................................................................................
   1   1.2000E-09   0.000       0.000       0.000       0.000       0.000       0.000       0.000       0.000       0.000    
   2   2.1000E-09  2.0000E-09  8.0000E-10  8.5000E-09   0.000       0.000       0.000       0.000       0.000       0.000    
   3   5.0000E-10  1.1000E-09  8.8000E-09  5.5000E-09   0.000       0.000       0.000       0.000       0.000       0.000    
   4   8.5000E-09  1.1000E-09  1.1000E-09  1.1000E-09  2.0000E-09   0.000       0.000       0.000       0.000       0.000    
   5   8.5000E-09  1.1000E-09  1.1000E-09  1.1000E-09  1.1000E-09   0.000       0.000       0.000       0.000       0.000    
   6   8.5000E-09  5.2000E-09  2.1000E-09  1.1000E-09  1.5000E-09   0.000       0.000       0.000       0.000       0.000    
   7   8.5000E-09  5.2000E-09  2.1000E-09  1.2000E-09  2.0000E-09   0.000       0.000       0.000       0.000       0.000    
   8   5.0000E-10  5.2000E-09  2.1000E-09  1.2000E-09  5.0000E-09   0.000       0.000       0.000       0.000       0.000    
   9   5.0000E-10  5.2000E-09  2.1000E-09  1.2000E-09  5.0000E-09   0.000       0.000       0.000       0.000       0.000    
  10   5.0000E-10  5.2000E-09  2.1000E-09  1.2000E-09  5.8000E-09   0.000       0.000       0.000       0.000       0.000    
  11   1.0000E-10  1.1000E-09  1.1000E-09  1.2000E-09  5.0000E-09   0.000       0.000       0.000       0.000       0.000    
  12   1.1000E-09  1.1000E-09  1.1000E-09  1.1000E-09  2.0000E-09   0.000       0.000       0.000       0.000       0.000    
  13   1.1000E-09  2.2000E-09  2.2000E-09  2.1000E-09  1.0000E-09   0.000       0.000       0.000       0.000       0.000    
  14   2.0000E-10  5.5000E-09  5.5000E-09  5.2000E-09  1.0000E-09   0.000       0.000       0.000       0.000       0.000    
  15    0.000      8.8000E-09  8.8000E-09   0.000       0.000       0.000       0.000       0.000       0.000       0.000    

                  ET RATE =  5.000000E-08

 USING ET EXTINCTION DEPTH FROM PREVIOUS STRESS PERIOD. CURRENT PERIOD IS:       6

 USING EXTINCTION WATER CONTENT FROM PREVIOUS STRESS PERIOD. CURRENT PERIOD IS:       6

 USING AIR ENTRY PRESSURE FROM PREVIOUS STRESS PERIOD. CURRENT PERIOD IS:       6

 USING ROOT PRESSURE HEAD FROM PREVIOUS STRESS PERIOD. CURRENT PERIOD IS:       6

 USING ROOT ACTIVITY FROM PREVIOUS STRESS PERIOD. CURRENT PERIOD IS:       6

 PROCESSING AG STRESS PERIOD DATA

 READING AG STRESS PERIOD DATA

 READING IRRIGATION SEGMENT

 READING IRRIGATION WELL

 READING SUPPLEMENTAL WELL

 END PROCESSING AG STRESS PERIOD DATA OPTIONS
 
 SOLVING FOR HEAD 
                                                   Max.-Head-Change                         Max.-Flux-Residual
  Residual-Control   Outer-Iter.   Inner-Iter.     Column Row Layer    Maximum-Head-Change  Column Row Layer    Maximum-Flux-Residual          L2-NORM 
          0                 1           2             4   13     1       0.1011066006E-01       4   13    1         0.5809713028E+00      0.1124593811E+01
          0                 2           2             4    7     1      -0.1148455896E-01       5    6    1        -0.6184842202E+00      0.1532542246E+01
          0                 3           2             4    7     1       0.1190397247E-01       5    6    1         0.6573083170E+00      0.1615267275E+01
          0                 4           2             4    7     1      -0.4736725484E-03       5    6    1        -0.2688398798E-01      0.6643958397E-01
          0                 5           1             4    7     1       0.5840584150E-05       5    6    1         0.3407029353E-03      0.9009251102E-03

    ------------------------------------------------
       NWT REQUIRED            5 OUTER ITERATIONS 
       AND A TOTAL OF          9 INNER ITERATIONS.
    ------------------------------------------------

 NO OUTPUT CONTROL FOR STRESS PERIOD    6   TIME STEP    1
 
 SOLVING FOR HEAD 
                                                   Max.-Head-Change                         Max.-Flux-Residual
  Residual-Control   Outer-Iter.   Inner-Iter.     Column Row Layer    Maximum-Head-Change  Column Row Layer    Maximum-Flux-Residual          L2-NORM 
          0                 1           2             4   13     1       0.9436496681E-02       4   13    1         0.5420209892E+00      0.1075798813E+01
          0                 2           2             4    7     1      -0.1238708658E-01       5    6    1        -0.6669985481E+00      0.1650760424E+01
          0                 3           2             4    7     1       0.1284331912E-01       5    6    1         0.7091704012E+00      0.1742764727E+01
          0                 4           2             4    7     1      -0.5110504160E-03       5    6    1        -0.2900515676E-01      0.7168650861E-01
          0                 5           1             4    7     1       0.6301468520E-05       5    6    1         0.3675846601E-03      0.9718460223E-03

    ------------------------------------------------
       NWT REQUIRED            5 OUTER ITERATIONS 
       AND A TOTAL OF          9 INNER ITERATIONS.
    ------------------------------------------------

 NO OUTPUT CONTROL FOR STRESS PERIOD    6   TIME STEP    2
 
 SOLVING FOR HEAD 
                                                   Max.-Head-Change                         Max.-Flux-Residual
  Residual-Control   Outer-Iter.   Inner-Iter.     Column Row Layer    Maximum-Head-Change  Column Row Layer    Maximum-Flux-Residual          L2-NORM 
          0                 1           2             4   13     1       0.8851704447E-02       4   13    1         0.5082447153E+00      0.1033260205E+01
          0                 2           2             4    7     1      -0.1121544656E-01       5    6    1        -0.6041157697E+00      0.1495496476E+01
          0                 3           2             4    7     1       0.1162365235E-01       5    6    1         0.6418384466E+00      0.1577241893E+01
          0                 4           2             4    7     1      -0.4625182393E-03       5    6    1        -0.2625126753E-01      0.6487587699E-01
          0                 5           1             4    7     1       0.5703046510E-05       5    6    1         0.3326844030E-03      0.8794499765E-03

    ------------------------------------------------
       NWT REQUIRED            5 OUTER ITERATIONS 
       AND A TOTAL OF          9 INNER ITERATIONS.
    ------------------------------------------------

 NO OUTPUT CONTROL FOR STRESS PERIOD    6   TIME STEP    3
 
 SOLVING FOR HEAD 
                                                   Max.-Head-Change                         Max.-Flux-Residual
  Residual-Control   Outer-Iter.   Inner-Iter.     Column Row Layer    Maximum-Head-Change  Column Row Layer    Maximum-Flux-Residual          L2-NORM 
          0                 1           2             4   13     1       0.8295577508E-02       4   13    1         0.4761336340E+00      0.9927859957E+00
          0                 2           2             4    7     1      -0.1121678534E-01       5    6    1        -0.6042244007E+00      0.1494988878E+01
          0                 3           2             4    7     1       0.1162492888E-01       5    6    1         0.6419114966E+00      0.1577424153E+01
          0                 4           2             4    7     1      -0.4625690340E-03       5    6    1        -0.2625425529E-01      0.6488374603E-01
          0                 5           1             4    7     1       0.5703673121E-05       5    6    1         0.3327222748E-03      0.8798616250E-03

    ------------------------------------------------
       NWT REQUIRED            5 OUTER ITERATIONS 
       AND A TOTAL OF          9 INNER ITERATIONS.
    ------------------------------------------------

 NO OUTPUT CONTROL FOR STRESS PERIOD    6   TIME STEP    4
 
 SOLVING FOR HEAD 
                                                   Max.-Head-Change                         Max.-Flux-Residual
  Residual-Control   Outer-Iter.   Inner-Iter.     Column Row Layer    Maximum-Head-Change  Column Row Layer    Maximum-Flux-Residual          L2-NORM 
          0                 1           2             4   13     1       0.7794373922E-02       4   13    1         0.4472033387E+00      0.9561928767E+00
          0                 2           2             4    7     1      -0.1125508689E-01       5    6    1        -0.6063183449E+00      0.1499429364E+01
          0                 3           2             4    7     1       0.1166469622E-01       5    6    1         0.6441095452E+00      0.1582829761E+01
          0                 4           2             4    7     1      -0.4641514290E-03       5    6    1        -0.2634415586E-01      0.6510670117E-01
          0                 5           1             4    7     1       0.5723184537E-05       5    6    1         0.3338615852E-03      0.8828976998E-03

    ------------------------------------------------
       NWT REQUIRED            5 OUTER ITERATIONS 
       AND A TOTAL OF          9 INNER ITERATIONS.
    ------------------------------------------------

 NO OUTPUT CONTROL FOR STRESS PERIOD    6   TIME STEP    5
 
 SOLVING FOR HEAD 
                                                   Max.-Head-Change                         Max.-Flux-Residual
  Residual-Control   Outer-Iter.   Inner-Iter.     Column Row Layer    Maximum-Head-Change  Column Row Layer    Maximum-Flux-Residual          L2-NORM 
          0                 1           2             2   13     1       0.7350580245E-02       4   13    1         0.4211762800E+00      0.9231417895E+00
          0                 2           2             4    7     1      -0.1126876800E-01       5    6    1        -0.6070855920E+00      0.1500683423E+01
          0                 3           2             4    7     1       0.1167880052E-01       5    6    1         0.6448904887E+00      0.1584750665E+01
          0                 4           2             4    7     1      -0.4647126579E-03       5    6    1        -0.2637609659E-01      0.6518605133E-01
          0                 5           1             4    7     1       0.5730104814E-05       5    6    1         0.3342663686E-03      0.8841395392E-03

    ------------------------------------------------
       NWT REQUIRED            5 OUTER ITERATIONS 
       AND A TOTAL OF          9 INNER ITERATIONS.
    ------------------------------------------------

 NO OUTPUT CONTROL FOR STRESS PERIOD    6   TIME STEP    6
 
 SOLVING FOR HEAD 
                                                   Max.-Head-Change                         Max.-Flux-Residual
  Residual-Control   Outer-Iter.   Inner-Iter.     Column Row Layer    Maximum-Head-Change  Column Row Layer    Maximum-Flux-Residual          L2-NORM 
          0                 1           2             2   13     1       0.7007134000E-02       4   13    1         0.3977319503E+00      0.8932399752E+00
          0                 2           2             4    7     1      -0.1130479240E-01       5    6    1        -0.6090500188E+00      0.1504939270E+01
          0                 3           2             4    7     1       0.1171615419E-01       5    6    1         0.6469547781E+00      0.1589827157E+01
          0                 4           2             4    7     1      -0.4661990098E-03       5    6    1        -0.2646052640E-01      0.6539524851E-01
          0                 5           1             4    7     1       0.5748432009E-05       5    6    1         0.3353363804E-03      0.8869728255E-03

    ------------------------------------------------
       NWT REQUIRED            5 OUTER ITERATIONS 
       AND A TOTAL OF          9 INNER ITERATIONS.
    ------------------------------------------------

 NO OUTPUT CONTROL FOR STRESS PERIOD    6   TIME STEP    7
 
 SOLVING FOR HEAD 
                                                   Max.-Head-Change                         Max.-Flux-Residual
  Residual-Control   Outer-Iter.   Inner-Iter.     Column Row Layer    Maximum-Head-Change  Column Row Layer    Maximum-Flux-Residual          L2-NORM 
          0                 1           2             2   13     1       0.6690267644E-02       2   13    1         0.3769553994E+00      0.8661948946E+00
          0                 2           2             4    7     1      -0.1130693525E-01       5    6    1        -0.6091890437E+00      0.1504770389E+01
          0                 3           2             4    7     1       0.1171820776E-01       5    6    1         0.6470698313E+00      0.1590111618E+01
          0                 4           2             4    7     1      -0.4662807244E-03       5    6    1        -0.2646523211E-01      0.6540736827E-01
          0                 5           1             4    7     1       0.5749439694E-05       5    6    1         0.3353959919E-03      0.8873226830E-03

    ------------------------------------------------
       NWT REQUIRED            5 OUTER ITERATIONS 
       AND A TOTAL OF          9 INNER ITERATIONS.
    ------------------------------------------------

 NO OUTPUT CONTROL FOR STRESS PERIOD    6   TIME STEP    8
 
 SOLVING FOR HEAD 
                                                   Max.-Head-Change                         Max.-Flux-Residual
  Residual-Control   Outer-Iter.   Inner-Iter.     Column Row Layer    Maximum-Head-Change  Column Row Layer    Maximum-Flux-Residual          L2-NORM 
          0                 1           2             2   13     1       0.6397193517E-02       2   13    1         0.3604211793E+00      0.8416665459E+00
          0                 2           2             4    7     1      -0.1131497248E-01       5    6    1        -0.6096453062E+00      0.1505424504E+01
          0                 3           2             4    7     1       0.1172641723E-01       5    6    1         0.6475247838E+00      0.1591231279E+01
          0                 4           2             4    7     1      -0.4666073897E-03       5    6    1        -0.2648383973E-01      0.6545367883E-01
          0                 5           1             4    7     1       0.5753467748E-05       5    6    1         0.3356317925E-03      0.8875942914E-03

    ------------------------------------------------
       NWT REQUIRED            5 OUTER ITERATIONS 
       AND A TOTAL OF          9 INNER ITERATIONS.
    ------------------------------------------------

 NO OUTPUT CONTROL FOR STRESS PERIOD    6   TIME STEP    9
 
 SOLVING FOR HEAD 
                                                   Max.-Head-Change                         Max.-Flux-Residual
  Residual-Control   Outer-Iter.   Inner-Iter.     Column Row Layer    Maximum-Head-Change  Column Row Layer    Maximum-Flux-Residual          L2-NORM 
          0                 1           2             2   13     1       0.6126339539E-02       2   13    1         0.3451414289E+00      0.8193979285E+00
          0                 2           2             4    7     1      -0.1131759381E-01       5    6    1        -0.6098082654E+00      0.1505401639E+01
          0                 3           2             4    7     1       0.1172898383E-01       5    6    1         0.6476680364E+00      0.1591584492E+01
          0                 4           2             4    7     1      -0.4667095178E-03       5    6    1        -0.2648969878E-01      0.6546849590E-01
          0                 5           1             4    7     1       0.5754727019E-05       5    6    1         0.3357060555E-03      0.8877546863E-03

    ------------------------------------------------
       NWT REQUIRED            5 OUTER ITERATIONS 
       AND A TOTAL OF          9 INNER ITERATIONS.
    ------------------------------------------------

 NO OUTPUT CONTROL FOR STRESS PERIOD    6   TIME STEP   10
 
 SOLVING FOR HEAD 
                                                   Max.-Head-Change                         Max.-Flux-Residual
  Residual-Control   Outer-Iter.   Inner-Iter.     Column Row Layer    Maximum-Head-Change  Column Row Layer    Maximum-Flux-Residual          L2-NORM 
          0                 1           2             2   13     1       0.5875905627E-02       2   13    1         0.3310145636E+00      0.7991578146E+00
          0                 2           2             4    7     1      -0.1133249850E-01       5    6    1        -0.6106285771E+00      0.1507033523E+01
          0                 3           2             4    7     1       0.1174433099E-01       5    6    1         0.6485167098E+00      0.1593671886E+01
          0                 4           2             4    7     1      -0.4673202020E-03       5    6    1        -0.2652440968E-01      0.6555480841E-01
          0                 5           1             4    7     1       0.5762256880E-05       5    6    1         0.3361459690E-03      0.8896557433E-03

    ------------------------------------------------
       NWT REQUIRED            5 OUTER ITERATIONS 
       AND A TOTAL OF          9 INNER ITERATIONS.
    ------------------------------------------------

 NO OUTPUT CONTROL FOR STRESS PERIOD    6   TIME STEP   11
 
 SOLVING FOR HEAD 
                                                   Max.-Head-Change                         Max.-Flux-Residual
  Residual-Control   Outer-Iter.   Inner-Iter.     Column Row Layer    Maximum-Head-Change  Column Row Layer    Maximum-Flux-Residual          L2-NORM 
          0                 1           2             2   13     1       0.5644555352E-02       2   13    1         0.3179649967E+00      0.7807542830E+00
          0                 2           2             4    7     1      -0.1134085806E-01       5    6    1        -0.6110951148E+00      0.1507832002E+01
          0                 3           2             4    7     1       0.1175286039E-01       5    6    1         0.6489888324E+00      0.1594833378E+01
          0                 4           2             4    7     1      -0.4676595984E-03       5    6    1        -0.2654371957E-01      0.6560264844E-01
          0                 5           1             4    7     1       0.5766441754E-05       5    6    1         0.3363906794E-03      0.8899990000E-03

    ------------------------------------------------
       NWT REQUIRED            5 OUTER ITERATIONS 
       AND A TOTAL OF          9 INNER ITERATIONS.
    ------------------------------------------------

 NO OUTPUT CONTROL FOR STRESS PERIOD    6   TIME STEP   12
 
 SOLVING FOR HEAD 
                                                   Max.-Head-Change                         Max.-Flux-Residual
  Residual-Control   Outer-Iter.   Inner-Iter.     Column Row Layer    Maximum-Head-Change  Column Row Layer    Maximum-Flux-Residual          L2-NORM 
          0                 1           2             2   13     1       0.5430807319E-02       2   13    1         0.3059091711E+00      0.7639905659E+00
          0                 2           2             4    7     1      -0.1134545605E-01       5    6    1        -0.6113575547E+00      0.1508160057E+01
          0                 3           2             4    7     1       0.1175747041E-01       5    6    1         0.6492444297E+00      0.1595462705E+01
          0                 4           2             4    7     1      -0.4678430372E-03       5    6    1        -0.2655417355E-01      0.6562888572E-01
          0                 5           1             4    7     1       0.5768704230E-05       5    6    1         0.3365231514E-03      0.8905550676E-03

    ------------------------------------------------
       NWT REQUIRED            5 OUTER ITERATIONS 
       AND A TOTAL OF          9 INNER ITERATIONS.
    ------------------------------------------------

 NO OUTPUT CONTROL FOR STRESS PERIOD    6   TIME STEP   13
 
 SOLVING FOR HEAD 
                                                   Max.-Head-Change                         Max.-Flux-Residual
  Residual-Control   Outer-Iter.   Inner-Iter.     Column Row Layer    Maximum-Head-Change  Column Row Layer    Maximum-Flux-Residual          L2-NORM 
          0                 1           2             2   13     1       0.5233200590E-02       2   13    1         0.2947645144E+00      0.7486947992E+00
          0                 2           2             4    7     1      -0.1133447882E-01       5    6    1        -0.6107815244E+00      0.1506455587E+01
          0                 3           2             4    7     1       0.1174586482E-01       5    6    1         0.6486046637E+00      0.1593890895E+01
          0                 4           2             4    7     1      -0.4673812353E-03       5    6    1        -0.2652800701E-01      0.6556440000E-01
          0                 5           1             4    7     1       0.5763009620E-05       5    6    1         0.3361915506E-03      0.8898207881E-03

    ------------------------------------------------
       NWT REQUIRED            5 OUTER ITERATIONS 
       AND A TOTAL OF          9 INNER ITERATIONS.
    ------------------------------------------------

 NO OUTPUT CONTROL FOR STRESS PERIOD    6   TIME STEP   14
 
 SOLVING FOR HEAD 
                                                   Max.-Head-Change                         Max.-Flux-Residual
  Residual-Control   Outer-Iter.   Inner-Iter.     Column Row Layer    Maximum-Head-Change  Column Row Layer    Maximum-Flux-Residual          L2-NORM 
          0                 1           2             2   13     1       0.5050244180E-02       2   13    1         0.2844468495E+00      0.7347019278E+00
          0                 2           2             4    7     1      -0.1132579071E-01       5    6    1        -0.6103265602E+00      0.1505074271E+01
          0                 3           2             4    7     1       0.1173663919E-01       5    6    1         0.6480961580E+00      0.1592641775E+01
          0                 4           2             4    7     1      -0.4670141348E-03       5    6    1        -0.2650720902E-01      0.6551318481E-01
          0                 5           1             4    7     1       0.5758482876E-05       5    6    1         0.3359279958E-03      0.8896018596E-03

    ------------------------------------------------
       NWT REQUIRED            5 OUTER ITERATIONS 
       AND A TOTAL OF          9 INNER ITERATIONS.
    ------------------------------------------------

 NO OUTPUT CONTROL FOR STRESS PERIOD    6   TIME STEP   15
 
 SOLVING FOR HEAD 
                                                   Max.-Head-Change                         Max.-Flux-Residual
  Residual-Control   Outer-Iter.   Inner-Iter.     Column Row Layer    Maximum-Head-Change  Column Row Layer    Maximum-Flux-Residual          L2-NORM 
          0                 1           2             2   13     1       0.4880841132E-02       2   13    1         0.2748941616E+00      0.7218801537E+00
          0                 2           2             4    7     1      -0.1134252062E-01       5    6    1        -0.6112365210E+00      0.1507068469E+01
          0                 3           2             4    7     1       0.1175386831E-01       5    6    1         0.6490481432E+00      0.1594982495E+01
          0                 4           2             4    7     1      -0.4676997045E-03       5    6    1        -0.2654614538E-01      0.6560959053E-01
          0                 5           1             4    7     1       0.5766936636E-05       5    6    1         0.3364214308E-03      0.8906790929E-03

    ------------------------------------------------
       NWT REQUIRED            5 OUTER ITERATIONS 
       AND A TOTAL OF          9 INNER ITERATIONS.
    ------------------------------------------------

 NO OUTPUT CONTROL FOR STRESS PERIOD    6   TIME STEP   16
 
 SOLVING FOR HEAD 
                                                   Max.-Head-Change                         Max.-Flux-Residual
  Residual-Control   Outer-Iter.   Inner-Iter.     Column Row Layer    Maximum-Head-Change  Column Row Layer    Maximum-Flux-Residual          L2-NORM 
          0                 1           2             2   13     1       0.4724495367E-02       2   13    1         0.2660785339E+00      0.7101494671E+00
          0                 2           2             4    7     1      -0.1134913101E-01       5    6    1        -0.6115996054E+00      0.1507743037E+01
          0                 3           2             4    7     1       0.1176056197E-01       5    6    1         0.6494182527E+00      0.1595893157E+01
          0                 4           2             4    7     1      -0.4679660540E-03       5    6    1        -0.2656128294E-01      0.6564723830E-01
          0                 5           1             4    7     1       0.5770220687E-05       5    6    1         0.3366132510E-03      0.8911882669E-03

    ------------------------------------------------
       NWT REQUIRED            5 OUTER ITERATIONS 
       AND A TOTAL OF          9 INNER ITERATIONS.
    ------------------------------------------------

 NO OUTPUT CONTROL FOR STRESS PERIOD    6   TIME STEP   17
 
 SOLVING FOR HEAD 
                                                   Max.-Head-Change                         Max.-Flux-Residual
  Residual-Control   Outer-Iter.   Inner-Iter.     Column Row Layer    Maximum-Head-Change  Column Row Layer    Maximum-Flux-Residual          L2-NORM 
          0                 1           2             2    2     1       0.4622930999E-02       2   13    1         0.2579305308E+00      0.6993891372E+00
          0                 2           2             4    7     1      -0.1135087242E-01       5    6    1        -0.6116995968E+00      0.1507790861E+01
          0                 3           2             4    7     1       0.1176218550E-01       5    6    1         0.6495083410E+00      0.1596115534E+01
          0                 4           2             4    7     1      -0.4680306565E-03       5    6    1        -0.2656496757E-01      0.6565660647E-01
          0                 5           1             4    7     1       0.5771017560E-05       5    6    1         0.3366599672E-03      0.8917067109E-03

    ------------------------------------------------
       NWT REQUIRED            5 OUTER ITERATIONS 
       AND A TOTAL OF          9 INNER ITERATIONS.
    ------------------------------------------------

 NO OUTPUT CONTROL FOR STRESS PERIOD    6   TIME STEP   18
 
 SOLVING FOR HEAD 
                                                   Max.-Head-Change                         Max.-Flux-Residual
  Residual-Control   Outer-Iter.   Inner-Iter.     Column Row Layer    Maximum-Head-Change  Column Row Layer    Maximum-Flux-Residual          L2-NORM 
          0                 1           2             2    2     1       0.4600012878E-02       2   13    1         0.2503957902E+00      0.6894944802E+00
          0                 2           2             4    7     1      -0.1135074928E-01       5    6    1        -0.6116965931E+00      0.1507603116E+01
          0                 3           2             4    7     1       0.1176184127E-01       5    6    1         0.6494895937E+00      0.1596070249E+01
          0                 4           2             4    7     1      -0.4680169591E-03       5    6    1        -0.2656420079E-01      0.6565472104E-01
          0                 5           1             4    7     1       0.5770848418E-05       5    6    1         0.3366502538E-03      0.8913430274E-03

    ------------------------------------------------
       NWT REQUIRED            5 OUTER ITERATIONS 
       AND A TOTAL OF          9 INNER ITERATIONS.
    ------------------------------------------------

 NO OUTPUT CONTROL FOR STRESS PERIOD    6   TIME STEP   19
 
 SOLVING FOR HEAD 
                                                   Max.-Head-Change                         Max.-Flux-Residual
  Residual-Control   Outer-Iter.   Inner-Iter.     Column Row Layer    Maximum-Head-Change  Column Row Layer    Maximum-Flux-Residual          L2-NORM 
          0                 1           2             2    2     1       0.4577395881E-02       2   13    1         0.2434264180E+00      0.6803775621E+00
          0                 2           2             4    7     1      -0.1136648144E-01       5    6    1        -0.6125451926E+00      0.1509525087E+01
          0                 3           2             4    7     1       0.1177802645E-01       5    6    1         0.6503834011E+00      0.1598267977E+01
          0                 4           2             4    7     1      -0.4686609889E-03       5    6    1        -0.2660075767E-01      0.6574529385E-01
          0                 5           1             4    7     1       0.5778789374E-05       5    6    1         0.3371135308E-03      0.8937547928E-03

    ------------------------------------------------
       NWT REQUIRED            5 OUTER ITERATIONS 
       AND A TOTAL OF          9 INNER ITERATIONS.
    ------------------------------------------------

 NO OUTPUT CONTROL FOR STRESS PERIOD    6   TIME STEP   20
 
 SOLVING FOR HEAD 
                                                   Max.-Head-Change                         Max.-Flux-Residual
  Residual-Control   Outer-Iter.   Inner-Iter.     Column Row Layer    Maximum-Head-Change  Column Row Layer    Maximum-Flux-Residual          L2-NORM 
          0                 1           2             2    2     1       0.4555075028E-02       2    2    1         0.2374858993E+00      0.6719968044E+00
          0                 2           2             4    7     1      -0.1136317515E-01       5    6    1        -0.6123716824E+00      0.1508945387E+01
          0                 3           2             4    7     1       0.1177439386E-01       5    6    1         0.6501831431E+00      0.1597778175E+01
          0                 4           2             4    7     1      -0.4685164432E-03       5    6    1        -0.2659256708E-01      0.6572789195E-01
          0                 5           1             4    7     1       0.5777007218E-05       5    6    1         0.3370097197E-03      0.8923561386E-03

    ------------------------------------------------
       NWT REQUIRED            5 OUTER ITERATIONS 
       AND A TOTAL OF          9 INNER ITERATIONS.
    ------------------------------------------------

 NO OUTPUT CONTROL FOR STRESS PERIOD    6   TIME STEP   21
 
 SOLVING FOR HEAD 
                                                   Max.-Head-Change                         Max.-Flux-Residual
  Residual-Control   Outer-Iter.   Inner-Iter.     Column Row Layer    Maximum-Head-Change  Column Row Layer    Maximum-Flux-Residual          L2-NORM 
          0                 1           2             2    2     1       0.4533046142E-02       2    2    1         0.2363285842E+00      0.6642406082E+00
          0                 2           2             4    7     1      -0.1137631942E-01       5    6    1        -0.6130786801E+00      0.1510547265E+01
          0                 3           2             4    7     1       0.1178788400E-01       5    6    1         0.6509279807E+00      0.1599608331E+01
          0                 4           2             4    7     1      -0.4690532339E-03       5    6    1        -0.2662303107E-01      0.6580065613E-01
          0                 5           1             4    7     1       0.5783626174E-05       5    6    1         0.3373957989E-03      0.8929057815E-03

    ------------------------------------------------
       NWT REQUIRED            5 OUTER ITERATIONS 
       AND A TOTAL OF          9 INNER ITERATIONS.
    ------------------------------------------------

 NO OUTPUT CONTROL FOR STRESS PERIOD    6   TIME STEP   22
 
 SOLVING FOR HEAD 
                                                   Max.-Head-Change                         Max.-Flux-Residual
  Residual-Control   Outer-Iter.   Inner-Iter.     Column Row Layer    Maximum-Head-Change  Column Row Layer    Maximum-Flux-Residual          L2-NORM 
          0                 1           2             2    2     1       0.4511304356E-02       2    2    1         0.2351864073E+00      0.6570814890E+00
          0                 2           2             4    7     1      -0.1137473751E-01       5    6    1        -0.6129936815E+00      0.1510214235E+01
          0                 3           2             4    7     1       0.1178604552E-01       5    6    1         0.6508264846E+00      0.1599359762E+01
          0                 4           2             4    7     1      -0.4689800786E-03       5    6    1        -0.2661887985E-01      0.6579072732E-01
          0                 5           1             4    7     1       0.5782724007E-05       5    6    1         0.3373431923E-03      0.8935598474E-03

    ------------------------------------------------
       NWT REQUIRED            5 OUTER ITERATIONS 
       AND A TOTAL OF          9 INNER ITERATIONS.
    ------------------------------------------------

 NO OUTPUT CONTROL FOR STRESS PERIOD    6   TIME STEP   23
 
 SOLVING FOR HEAD 
                                                   Max.-Head-Change                         Max.-Flux-Residual
  Residual-Control   Outer-Iter.   Inner-Iter.     Column Row Layer    Maximum-Head-Change  Column Row Layer    Maximum-Flux-Residual          L2-NORM 
          0                 1           2             2    2     1       0.4489845632E-02       2    2    1         0.2340591164E+00      0.6504444764E+00
          0                 2           2             4    7     1      -0.1138517389E-01       5    6    1        -0.6135516498E+00      0.1511474103E+01
          0                 3           2             4    7     1       0.1179669102E-01       5    6    1         0.6514140243E+00      0.1600804893E+01
          0                 4           2             4    7     1      -0.4694036775E-03       5    6    1        -0.2664291032E-01      0.6585007847E-01
          0                 5           1             4    7     1       0.5787947035E-05       5    6    1         0.3376477516E-03      0.8938023275E-03

    ------------------------------------------------
       NWT REQUIRED            5 OUTER ITERATIONS 
       AND A TOTAL OF          9 INNER ITERATIONS.
    ------------------------------------------------

 NO OUTPUT CONTROL FOR STRESS PERIOD    6   TIME STEP   24
 
 SOLVING FOR HEAD 
                                                   Max.-Head-Change                         Max.-Flux-Residual
  Residual-Control   Outer-Iter.   Inner-Iter.     Column Row Layer    Maximum-Head-Change  Column Row Layer    Maximum-Flux-Residual          L2-NORM 
          0                 1           2             2    2     1       0.4468580924E-02       2    2    1         0.2329420551E+00      0.6442937164E+00
          0                 2           2             4    7     1      -0.1139164159E-01       5    6    1        -0.6138986387E+00      0.1512221874E+01
          0                 3           2             4    7     1       0.1180323245E-01       5    6    1         0.6517751393E+00      0.1601693042E+01
          0                 4           2             4    7     1      -0.4696639690E-03       5    6    1        -0.2665768001E-01      0.6588653266E-01
          0                 5           1             4    7     1       0.5791156484E-05       5    6    1         0.3378348906E-03      0.8943140764E-03

    ------------------------------------------------
       NWT REQUIRED            5 OUTER ITERATIONS 
       AND A TOTAL OF          9 INNER ITERATIONS.
    ------------------------------------------------

 NO OUTPUT CONTROL FOR STRESS PERIOD    6   TIME STEP   25
 
 SOLVING FOR HEAD 
                                                   Max.-Head-Change                         Max.-Flux-Residual
  Residual-Control   Outer-Iter.   Inner-Iter.     Column Row Layer    Maximum-Head-Change  Column Row Layer    Maximum-Flux-Residual          L2-NORM 
          0                 1           2             2    2     1       0.4447591305E-02       2    2    1         0.2318395001E+00      0.6385820129E+00
          0                 2           2             4    7     1      -0.1138115815E-01       5    6    1        -0.6133325929E+00      0.1510735470E+01
          0                 3           2             4    7     1       0.1179213013E-01       5    6    1         0.6511620003E+00      0.1600187327E+01
          0                 4           2             4    7     1      -0.4692221929E-03       5    6    1        -0.2663260250E-01      0.6582465923E-01
          0                 5           1             4    7     1       0.5785709202E-05       5    6    1         0.3375171095E-03      0.8935185733E-03

    ------------------------------------------------
       NWT REQUIRED            5 OUTER ITERATIONS 
       AND A TOTAL OF          9 INNER ITERATIONS.
    ------------------------------------------------

 NO OUTPUT CONTROL FOR STRESS PERIOD    6   TIME STEP   26
 
 SOLVING FOR HEAD 
                                                   Max.-Head-Change                         Max.-Flux-Residual
  Residual-Control   Outer-Iter.   Inner-Iter.     Column Row Layer    Maximum-Head-Change  Column Row Layer    Maximum-Flux-Residual          L2-NORM 
          0                 1           2             2    2     1       0.4426872974E-02       2    2    1         0.2307512082E+00      0.6332473815E+00
          0                 2           2             4    7     1      -0.1138949917E-01       5    6    1        -0.6137766835E+00      0.1511743549E+01
          0                 3           2             4    7     1       0.1180062264E-01       5    6    1         0.6516305847E+00      0.1601340272E+01
          0                 4           2             4    7     1      -0.4695601214E-03       5    6    1        -0.2665176771E-01      0.6587292456E-01
          0                 5           1             4    7     1       0.5789876378E-05       5    6    1         0.3377599819E-03      0.8939794066E-03

    ------------------------------------------------
       NWT REQUIRED            5 OUTER ITERATIONS 
       AND A TOTAL OF          9 INNER ITERATIONS.
    ------------------------------------------------

 NO OUTPUT CONTROL FOR STRESS PERIOD    6   TIME STEP   27
 
 SOLVING FOR HEAD 
                                                   Max.-Head-Change                         Max.-Flux-Residual
  Residual-Control   Outer-Iter.   Inner-Iter.     Column Row Layer    Maximum-Head-Change  Column Row Layer    Maximum-Flux-Residual          L2-NORM 
          0                 1           2             2    2     1       0.4406421775E-02       2    2    1         0.2296769825E+00      0.6282871347E+00
          0                 2           2             4    7     1      -0.1138120526E-01       5    6    1        -0.6133268395E+00      0.1510558381E+01
          0                 3           2             4    7     1       0.1179177474E-01       5    6    1         0.6511418089E+00      0.1600139136E+01
          0                 4           2             4    7     1      -0.4692080515E-03       5    6    1        -0.2663177667E-01      0.6582297714E-01
          0                 5           1             4    7     1       0.5785535131E-05       5    6    1         0.3375066435E-03      0.8927065343E-03

    ------------------------------------------------
       NWT REQUIRED            5 OUTER ITERATIONS 
       AND A TOTAL OF          9 INNER ITERATIONS.
    ------------------------------------------------

 NO OUTPUT CONTROL FOR STRESS PERIOD    6   TIME STEP   28
 
 SOLVING FOR HEAD 
                                                   Max.-Head-Change                         Max.-Flux-Residual
  Residual-Control   Outer-Iter.   Inner-Iter.     Column Row Layer    Maximum-Head-Change  Column Row Layer    Maximum-Flux-Residual          L2-NORM 
          0                 1           2             2    2     1       0.4386233644E-02       2    2    1         0.2286166072E+00      0.6236390230E+00
          0                 2           2             4    7     1      -0.1139265725E-01       5    6    1        -0.6139365050E+00      0.1511986745E+01
          0                 3           2             4    7     1       0.1180350858E-01       5    6    1         0.6517892342E+00      0.1601731452E+01
          0                 4           2             4    7     1      -0.4696749566E-03       5    6    1        -0.2665825649E-01      0.6588844576E-01
          0                 5           1             4    7     1       0.5791292022E-05       5    6    1         0.3378422157E-03      0.8947920728E-03

    ------------------------------------------------
       NWT REQUIRED            5 OUTER ITERATIONS 
       AND A TOTAL OF          9 INNER ITERATIONS.
    ------------------------------------------------

 NO OUTPUT CONTROL FOR STRESS PERIOD    6   TIME STEP   29
 
 SOLVING FOR HEAD 
                                                   Max.-Head-Change                         Max.-Flux-Residual
  Residual-Control   Outer-Iter.   Inner-Iter.     Column Row Layer    Maximum-Head-Change  Column Row Layer    Maximum-Flux-Residual          L2-NORM 
          0                 1           2             2    2     1       0.4097825045E-02       2    2    1         0.2135389843E+00      0.5482522033E+00
          0                 2           2             4    7     1      -0.1139309316E-01       5    6    1        -0.6139539159E+00      0.1510760208E+01
          0                 3           2             4    7     1       0.1180377785E-01       5    6    1         0.6518036853E+00      0.1601781279E+01
          0                 4           2             4    7     1      -0.4696856713E-03       5    6    1        -0.2665884751E-01      0.6589177694E-01
          0                 5           1             4    7     1       0.5791424199E-05       5    6    1         0.3378497036E-03      0.8944919367E-03

    ------------------------------------------------
       NWT REQUIRED            5 OUTER ITERATIONS 
       AND A TOTAL OF          9 INNER ITERATIONS.
    ------------------------------------------------

 NO OUTPUT CONTROL FOR STRESS PERIOD    6   TIME STEP   30



 STREAM LISTING     PERIOD      6   STEP       30

 LAYER ROW COL. STREAM  RCH.  FLOW INTO     FLOW TO   FLOW OUT OF   OVRLND.     DIRECT     STREAM       STREAM     STREAM     STREAM   STREAMBED  STREAMBED
                SEG.NO.  NO.  STRM. RCH.    AQUIFER    STRM. RCH.    RUNOFF     PRECIP       ET          HEAD       DEPTH      WIDTH   CONDCTNC.   GRADIENT

   1    1    1     1     1    3.4633E+01  2.8494E-01   3.4348E+01  0.000E+00  0.000E+00  0.000E+00  1.09434E+03  1.289E+00  1.476E+01  6.643E-02  1.430E+00
   1    2    2     1     2    3.4348E+01  4.4115E-01   3.3907E+01  0.000E+00  0.000E+00  0.000E+00  1.08934E+03  1.286E+00  1.470E+01  1.029E-01  1.429E+00
   1    3    3     1     3    3.3907E+01  3.7610E-01   3.3531E+01  0.000E+00  0.000E+00  0.000E+00  1.08370E+03  1.283E+00  1.464E+01  8.782E-02  1.428E+00
   1    3    4     1     4    3.3531E+01  3.4622E-01   3.3185E+01  0.000E+00  0.000E+00  0.000E+00  1.07869E+03  1.280E+00  1.458E+01  8.090E-02  1.427E+00
   1    4    5     2     1    3.1185E+01  3.4119E-01   3.0843E+01  0.000E+00  0.000E+00  0.000E+00  1.07331E+03  1.374E+00  1.200E+01  7.800E-02  1.458E+00
   1    5    6     2     2    3.0843E+01  2.6198E-01   3.0581E+01  0.000E+00  0.000E+00  0.000E+00  1.06788E+03  1.366E+00  1.200E+01  6.000E-02  1.455E+00
   1    6    6     2     3    3.0581E+01  2.6156E-01   3.0320E+01  0.000E+00  0.000E+00  0.000E+00  1.06315E+03  1.359E+00  1.200E+01  6.000E-02  1.453E+00
   1    7    6     2     4    3.0320E+01  2.6113E-01   3.0059E+01  0.000E+00  0.000E+00  0.000E+00  1.05843E+03  1.352E+00  1.200E+01  6.000E-02  1.451E+00
   1    8    6     2     5    3.0059E+01  2.6071E-01   2.9798E+01  0.000E+00  0.000E+00  0.000E+00  1.05370E+03  1.345E+00  1.200E+01  6.000E-02  1.448E+00
   1    3    5     3     1    2.0000E+00  2.8252E-01   1.7175E+00  0.000E+00  0.000E+00  0.000E+00  1.07555E+03  1.909E+00  9.636E+00  7.227E-02  1.955E+00
   1    3    6     3     2    1.7175E+00  2.4905E-01   1.4684E+00  0.000E+00  0.000E+00  0.000E+00  1.07264E+03  1.727E+00  8.909E+00  6.682E-02  1.864E+00
   1    3    7     3     3    1.4684E+00  1.9718E-01   1.2712E+00  0.000E+00  0.000E+00  0.000E+00  1.06987E+03  1.555E+00  8.218E+00  5.547E-02  1.777E+00
   1    4    8     3     4    1.2712E+00  2.2567E-01   1.0456E+00  0.000E+00  0.000E+00  0.000E+00  1.06682E+03  1.364E+00  7.455E+00  6.709E-02  1.682E+00
   1    5    8     3     5    1.0456E+00  1.5790E-01   8.8768E-01  0.000E+00  0.000E+00  0.000E+00  1.06362E+03  1.164E+00  6.655E+00  4.991E-02  1.582E+00
   1    6    8     3     6    8.8768E-01  5.5980E-02   8.3170E-01  0.000E+00  0.000E+00  0.000E+00  1.06158E+03  1.036E+00  6.145E+00  1.844E-02  1.518E+00
   1    5   10     4     1    1.0000E+01  9.0919E-02   9.9091E+00  0.000E+00  0.000E+00  0.000E+00  1.07836E+03  6.368E-01  1.000E+01  2.500E-02  1.212E+00
   1    5    9     4     2    9.9091E+00  1.8158E-01   9.7275E+00  0.000E+00  0.000E+00  0.000E+00  1.07154E+03  6.315E-01  1.000E+01  5.000E-02  1.211E+00
   1    6    8     4     3    9.7275E+00  1.2689E-01   9.6006E+00  0.000E+00  0.000E+00  0.000E+00  1.06381E+03  6.256E-01  1.000E+01  3.500E-02  1.209E+00
   1    6    8     5     1    1.0432E+01  2.2686E-01   1.0205E+01  0.000E+00  0.000E+00  0.000E+00  1.05868E+03  6.790E-01  1.542E+01  6.166E-02  1.226E+00
   1    7    7     5     2    1.0205E+01  2.7894E-01   9.9265E+00  0.000E+00  0.000E+00  0.000E+00  1.05417E+03  6.732E-01  1.519E+01  7.594E-02  1.224E+00
   1    8    7     5     3    9.9265E+00  1.9221E-01   9.7343E+00  0.000E+00  0.000E+00  0.000E+00  1.04992E+03  6.676E-01  1.497E+01  5.241E-02  1.223E+00
   1    8    6     5     4    9.7343E+00  1.3577E-01   9.5985E+00  0.000E+00  0.000E+00  0.000E+00  1.04691E+03  6.637E-01  1.482E+01  3.706E-02  1.221E+00
   1    9    6     6     1    3.2091E+01  2.6489E-01   3.1826E+01  0.000E+00  0.000E+00  0.000E+00  1.04414E+03  1.415E+00  1.200E+01  6.000E-02  1.472E+00
   1   10    7     6     2    3.1826E+01  2.6447E-01   3.1561E+01  0.000E+00  0.000E+00  0.000E+00  1.03959E+03  1.408E+00  1.200E+01  6.000E-02  1.469E+00
   1   11    7     6     3    3.1561E+01  2.6405E-01   3.1297E+01  0.000E+00  0.000E+00  0.000E+00  1.03504E+03  1.401E+00  1.200E+01  6.000E-02  1.467E+00
   1   12    7     6     4    3.1297E+01  2.6362E-01   3.1034E+01  0.000E+00  0.000E+00  0.000E+00  1.03048E+03  1.394E+00  1.200E+01  6.000E-02  1.465E+00
   1   13    7     6     5    3.1034E+01  1.0435E-02   3.1023E+01  0.000E+00  0.000E+00  0.000E+00  1.02730E+03  1.390E+00  1.200E+01  2.400E-02  1.449E-01
   1   14    9     7     1    1.5000E+02  1.3677E+00   1.4863E+02  0.000E+00  0.000E+00  0.000E+00  1.03987E+03  2.288E+00  5.529E+01  5.593E-01  8.152E-01
   1   13    8     7     2    1.4863E+02  1.9155E+00   1.4672E+02  0.000E+00  0.000E+00  0.000E+00  1.03478E+03  2.279E+00  5.526E+01  6.148E-01  1.039E+00
   1   13    7     7     3    1.4672E+02  1.5773E+00   1.4514E+02  0.000E+00  0.000E+00  0.000E+00  1.02969E+03  2.270E+00  5.521E+01  5.584E-01  9.415E-01
   1   13    6     8     1    1.7616E+02  1.0373E+00   1.7513E+02  0.000E+00  0.000E+00  0.000E+00  1.02486E+03  2.989E+00  4.333E+01  4.416E-01  7.830E-01
   1   13    5     8     2    1.7513E+02  2.6060E-01   1.7486E+02  0.000E+00  0.000E+00  0.000E+00  1.01861E+03  2.984E+00  4.327E+01  4.410E-01  1.970E-01
   1   13    4     8     3    1.7486E+02 -2.2249E+00   1.7709E+02  0.000E+00  0.000E+00  0.000E+00  1.01237E+03  2.991E+00  4.337E+01  4.419E+00 -1.678E-01
   1   13    3     8     4    1.7709E+02 -3.5410E+00   1.8063E+02  0.000E+00  0.000E+00  0.000E+00  1.00613E+03  3.009E+00  4.363E+01  4.446E+00 -2.655E-01
   1   13    2     8     5    1.8063E+02 -2.5384E+00   1.8317E+02  0.000E+00  0.000E+00  0.000E+00  9.99903E+02  3.028E+00  4.391E+01  4.474E+00 -1.891E-01
   1   13    1     8     6    1.8317E+02 -1.9433E+00   1.8511E+02  0.000E+00  0.000E+00  0.000E+00  9.94917E+02  3.042E+00  4.411E+01  2.697E+00 -2.402E-01
   1    8    6     9     1    7.3059E+00  0.0000E+00   7.3059E+00  0.000E+00  0.000E+00  0.000E+00  1.08063E+03  1.877E+00  4.000E+00  0.000E+00  1.626E+00
   1    8    5     9     2    7.3059E+00  0.0000E+00   7.3059E+00  0.000E+00  0.000E+00  0.000E+00  1.08013E+03  1.877E+00  4.000E+00  0.000E+00  1.626E+00





UNSATURATED ZONE PACKAGE VOLUMETRIC BUDGET FOR  TIME STEP    30 STRESS PERIOD    6
  ------------------------------------------------------------------------------



     CUMULATIVE VOLUMES      L**3       RATES FOR THIS TIME STEP      L**3/T
     ------------------                 ------------------------

           IN:                                      IN:
           ---                                      ---
        INFILTRATION =    86119343.3762          INFILTRATION =          11.7136

          OUT:                                     OUT:
          ----                                     ----
              UZF ET =    66336487.2705                UZF ET =          11.6075
        UZF RECHARGE =       73224.0000          UZF RECHARGE =       0.0000E+00

            IN - OUT =    19709632.1057              IN - OUT =           0.1061

          STORAGE:                                 STORAGE:
          --------                                 --------
      STORAGE CHANGE =    19709631.2135        STORAGE CHANGE =           0.1061

 PERCENT DISCREPANCY IS DIFFERENCE BETWEEN IN-OUT MINUS CHANGE IN STORAGE
 DIVIDED BY THE AVERAGE OF IN AND OUT TIMES 100

 PERCENT DISCREPANCY =           0.00     PERCENT DISCREPANCY =           0.00






1
  VOLUMETRIC BUDGET FOR AGRICULTURAL FIELDS AT  END OF TIME STEP   30, STRESS PERIOD   6
  ------------------------------------------------------------------------------

     CUMULATIVE VOLUMES      L**3       RATES FOR THIS TIME STEP      L**3/T
     ------------------                 ------------------------

           IN:                                      IN:
           ---                                      ---
               AG WELLS  =       29478.1953                 AG WELLS  =           0.0000
      DIVERSION SEGMENTS =    28086938.0000        DIVERSION SEGMENTS =           7.3059
           GW IRRIGATION =           0.0000             GW IRRIGATION =           0.0000
           SW IRRIGATION =           0.0000             SW IRRIGATION =           0.0000
        SYSTEM LOSSES GW =           0.0000          SYSTEM LOSSES GW =           0.0000
        SYSTEM LOSSES SW =           0.0000          SYSTEM LOSSES SW =           0.0000

                TOTAL IN =    28116416.0000                  TOTAL IN =           7.3059

          OUT:                                     OUT:
          ----                                     ----
               AG WELLS  =           0.0000                 AG WELLS  =           0.0000
      DIVERSION SEGMENTS =           0.0000        DIVERSION SEGMENTS =           0.0000
           GW IRRIGATION =       29478.1953             GW IRRIGATION =           0.0000
           SW IRRIGATION =    28087496.0000             SW IRRIGATION =           7.3061
        SYSTEM LOSSES GW =           0.0000          SYSTEM LOSSES GW =           0.0000
        SYSTEM LOSSES SW =           0.0000          SYSTEM LOSSES SW =           0.0000

               TOTAL OUT =    28116974.0000                 TOTAL OUT =           7.3061

                IN - OUT =        -558.0000                  IN - OUT =      -1.4591E-04

     PERCENT DISCREPANCY =          -0.00         PERCENT DISCREPANCY =          -0.00



1
  VOLUMETRIC BUDGET FOR ENTIRE MODEL AT END OF TIME STEP   30, STRESS PERIOD   6
  ------------------------------------------------------------------------------

     CUMULATIVE VOLUMES      L**3       RATES FOR THIS TIME STEP      L**3/T
     ------------------                 ------------------------

           IN:                                      IN:
           ---                                      ---
             STORAGE     =     8076116.0000               STORAGE     =           0.3869
       CONSTANT HEAD     =           0.0000         CONSTANT HEAD     =           0.0000
     HEAD DEP BOUNDS     =     3810180.0000       HEAD DEP BOUNDS     =           0.2879
      STREAM LEAKAGE     =   156256528.0000        STREAM LEAKAGE     =          12.4624
        UZF RECHARGE     =       73223.9531          UZF RECHARGE     =           0.0000
               GW ET     =           0.0000                 GW ET     =           0.0000
     SURFACE LEAKAGE     =           0.0000       SURFACE LEAKAGE     =           0.0000
           AG WELLS      =           0.0000             AG WELLS      =           0.0000

                TOTAL IN =   168216032.0000                  TOTAL IN =          13.1372

          OUT:                                     OUT:
          ----                                     ----
             STORAGE     =    29879760.0000               STORAGE     =           2.5994
       CONSTANT HEAD     =           0.0000         CONSTANT HEAD     =           0.0000
     HEAD DEP BOUNDS     =     3818496.7500       HEAD DEP BOUNDS     =           0.2902
      STREAM LEAKAGE     =   134491712.0000        STREAM LEAKAGE     =          10.2475
        UZF RECHARGE     =           0.0000          UZF RECHARGE     =           0.0000
               GW ET     =           0.0000                 GW ET     =           0.0000
     SURFACE LEAKAGE     =           0.0000       SURFACE LEAKAGE     =           0.0000
           AG WELLS      =       29478.1953             AG WELLS      =           0.0000

               TOTAL OUT =   168219440.0000                 TOTAL OUT =          13.1371

                IN - OUT =       -3408.0000                  IN - OUT =       4.3869E-05

     PERCENT DISCREPANCY =          -0.00         PERCENT DISCREPANCY =           0.00






         TIME SUMMARY AT END OF TIME STEP   30 IN STRESS PERIOD    6
                    SECONDS     MINUTES      HOURS       DAYS        YEARS
                    -----------------------------------------------------------
   TIME STEP LENGTH  87667.      1461.1      24.352      1.0147     2.77799E-03
 STRESS PERIOD TIME 2.63000E+06  43833.      730.56      30.440     8.33397E-02
         TOTAL TIME 1.32364E+07 2.20607E+05  3676.8      153.20     0.41944    
1
1
                            STRESS PERIOD NO.    7, LENGTH =   2630000.    
                            -----------------------------------------------

                              NUMBER OF TIME STEPS =    30

                               MULTIPLIER FOR DELT =     1.000

                            INITIAL TIME STEP SIZE =   87666.66    

 REUSING NON-PARAMETER GHB CELLS FROM LAST STRESS PERIOD

      2 GHB CELLS

 REUSING STREAM SEGMENT DATA FROM LAST STRESS PERIOD



            AREAL INFILTRATION RATE
 READING ON UNIT   19 WITH FORMAT: (10F4.0)            

            1           2           3           4           5           6           7           8           9          10
 ........................................................................................................................
   1   1.2000E-09   0.000       0.000       0.000       0.000       0.000       0.000       0.000       0.000       0.000    
   2   2.1000E-09  2.0000E-09  8.0000E-10  8.5000E-09   0.000       0.000       0.000       0.000       0.000       0.000    
   3   5.0000E-10  1.1000E-09  8.8000E-09  5.5000E-09   0.000       0.000       0.000       0.000       0.000       0.000    
   4   8.5000E-09  1.1000E-09  1.1000E-09  1.1000E-09  2.0000E-09   0.000       0.000       0.000       0.000       0.000    
   5   8.5000E-09  1.1000E-09  1.1000E-09  1.1000E-09  1.1000E-09   0.000       0.000       0.000       0.000       0.000    
   6   8.5000E-09  5.2000E-09  2.1000E-09  1.1000E-09  1.5000E-09   0.000       0.000       0.000       0.000       0.000    
   7   8.5000E-09  5.2000E-09  2.1000E-09  1.2000E-09  2.0000E-09   0.000       0.000       0.000       0.000       0.000    
   8   5.0000E-10  5.2000E-09  2.1000E-09  1.2000E-09  5.0000E-09   0.000       0.000       0.000       0.000       0.000    
   9   5.0000E-10  5.2000E-09  2.1000E-09  1.2000E-09  5.0000E-09   0.000       0.000       0.000       0.000       0.000    
  10   5.0000E-10  5.2000E-09  2.1000E-09  1.2000E-09  5.8000E-09   0.000       0.000       0.000       0.000       0.000    
  11   1.0000E-10  1.1000E-09  1.1000E-09  1.2000E-09  5.0000E-09   0.000       0.000       0.000       0.000       0.000    
  12   1.1000E-09  1.1000E-09  1.1000E-09  1.1000E-09  2.0000E-09   0.000       0.000       0.000       0.000       0.000    
  13   1.1000E-09  2.2000E-09  2.2000E-09  2.1000E-09  1.0000E-09   0.000       0.000       0.000       0.000       0.000    
  14   2.0000E-10  5.5000E-09  5.5000E-09  5.2000E-09  1.0000E-09   0.000       0.000       0.000       0.000       0.000    
  15    0.000      8.8000E-09  8.8000E-09   0.000       0.000       0.000       0.000       0.000       0.000       0.000    

                  ET RATE =  1.500000E-07

 USING ET EXTINCTION DEPTH FROM PREVIOUS STRESS PERIOD. CURRENT PERIOD IS:       7

 USING EXTINCTION WATER CONTENT FROM PREVIOUS STRESS PERIOD. CURRENT PERIOD IS:       7

 USING AIR ENTRY PRESSURE FROM PREVIOUS STRESS PERIOD. CURRENT PERIOD IS:       7

 USING ROOT PRESSURE HEAD FROM PREVIOUS STRESS PERIOD. CURRENT PERIOD IS:       7

 USING ROOT ACTIVITY FROM PREVIOUS STRESS PERIOD. CURRENT PERIOD IS:       7

 PROCESSING AG STRESS PERIOD DATA

 READING AG STRESS PERIOD DATA

 READING IRRIGATION SEGMENT

 READING IRRIGATION WELL

 READING SUPPLEMENTAL WELL

 END PROCESSING AG STRESS PERIOD DATA OPTIONS
 
 SOLVING FOR HEAD 
                                                   Max.-Head-Change                         Max.-Flux-Residual
  Residual-Control   Outer-Iter.   Inner-Iter.     Column Row Layer    Maximum-Head-Change  Column Row Layer    Maximum-Flux-Residual          L2-NORM 
          0                 1           2             2    2     1       0.3684044596E-02       2    2    1         0.1919101408E+00      0.4645265152E+00
          0                 2           2             4    7     1      -0.4159896150E-01       5    6    1        -0.2236184588E+01      0.5500314725E+01
          0                 3           2             4    7     1       0.4208433941E-01       5    6    1         0.2323506630E+01      0.5709549442E+01
          0                 4           2             4    7     1      -0.1674824140E-02       4    6    1        -0.9599898064E-01      0.2443871239E+00
          0                 5           1             7   13     1       0.7942604157E-04       7   13    1         0.4550554654E-02      0.5586975024E-02

    ------------------------------------------------
       NWT REQUIRED            5 OUTER ITERATIONS 
       AND A TOTAL OF          9 INNER ITERATIONS.
    ------------------------------------------------

 NO OUTPUT CONTROL FOR STRESS PERIOD    7   TIME STEP    1
 
 SOLVING FOR HEAD 
                                                   Max.-Head-Change                         Max.-Flux-Residual
  Residual-Control   Outer-Iter.   Inner-Iter.     Column Row Layer    Maximum-Head-Change  Column Row Layer    Maximum-Flux-Residual          L2-NORM 
          0                 1           2             2    2     1       0.3669367194E-02       2    2    1         0.1911396435E+00      0.5049904400E+00
          0                 2           2             4    7     1      -0.3858199343E-01       5    6    1        -0.2074277316E+01      0.5103969502E+01
          0                 3           2             4    7     1       0.4010389905E-01       5    6    1         0.2214179730E+01      0.5441218249E+01
          0                 4           2             4    7     1      -0.1596021706E-02       4    6    1        -0.9154420284E-01      0.2302568314E+00
          0                 5           1             7   13     1       0.6251937342E-04       7   13    1         0.3582451217E-02      0.4727504194E-02

    ------------------------------------------------
       NWT REQUIRED            5 OUTER ITERATIONS 
       AND A TOTAL OF          9 INNER ITERATIONS.
    ------------------------------------------------

 NO OUTPUT CONTROL FOR STRESS PERIOD    7   TIME STEP    2
 
 SOLVING FOR HEAD 
                                                   Max.-Head-Change                         Max.-Flux-Residual
  Residual-Control   Outer-Iter.   Inner-Iter.     Column Row Layer    Maximum-Head-Change  Column Row Layer    Maximum-Flux-Residual          L2-NORM 
          0                 1           2             2    2     1       0.3654784231E-02       2    2    1         0.1903741861E+00      0.5303062326E+00
          0                 2           2             4    7     1      -0.3707767177E-01       5    6    1        -0.1993455453E+01      0.4905886587E+01
          0                 3           2             4    7     1       0.3853784118E-01       5    6    1         0.2127719193E+01      0.5228855511E+01
          0                 4           2             4    7     1      -0.1533708572E-02       4    6    1        -0.8802477165E-01      0.2198944355E+00
          0                 5           1             7   13     1       0.5204175773E-04       7   13    1         0.2982338885E-02      0.4201562815E-02

    ------------------------------------------------
       NWT REQUIRED            5 OUTER ITERATIONS 
       AND A TOTAL OF          9 INNER ITERATIONS.
    ------------------------------------------------

 NO OUTPUT CONTROL FOR STRESS PERIOD    7   TIME STEP    3
 
 SOLVING FOR HEAD 
                                                   Max.-Head-Change                         Max.-Flux-Residual
  Residual-Control   Outer-Iter.   Inner-Iter.     Column Row Layer    Maximum-Head-Change  Column Row Layer    Maximum-Flux-Residual          L2-NORM 
          0                 1           2             2    2     1       0.3640379531E-02       4   13    1         0.1940011546E+00      0.5568216737E+00
          0                 2           2             4    7     1      -0.2440847206E-01       5    6    1        -0.1313008550E+01      0.3233180498E+01
          0                 3           2             4    7     1       0.2534999478E-01       5    6    1         0.1399661041E+01      0.3439874268E+01
          0                 4           2             4    7     1      -0.1008710662E-02       5    6    1        -0.5724639806E-01      0.1415086275E+00
          0                 5           1             4    7     1       0.1243782269E-04       5    6    1         0.7254880184E-03      0.1922490617E-02

    ------------------------------------------------
       NWT REQUIRED            5 OUTER ITERATIONS 
       AND A TOTAL OF          9 INNER ITERATIONS.
    ------------------------------------------------

 NO OUTPUT CONTROL FOR STRESS PERIOD    7   TIME STEP    4
 
 SOLVING FOR HEAD 
                                                   Max.-Head-Change                         Max.-Flux-Residual
  Residual-Control   Outer-Iter.   Inner-Iter.     Column Row Layer    Maximum-Head-Change  Column Row Layer    Maximum-Flux-Residual          L2-NORM 
          0                 1           2             4   13     1       0.3695486971E-02       4   13    1         0.2120697820E+00      0.5545098179E+00
          0                 2           2             4    7     1      -0.4114236271E-01       5    6    1        -0.2211694044E+01      0.5442370630E+01
          0                 3           2             4    7     1       0.4249892408E-01       5    6    1         0.2346396303E+01      0.5766146158E+01
          0                 4           2             4    7     1      -0.1691334599E-02       4    6    1        -0.9699344197E-01      0.2465636792E+00
          0                 5           1             7   13     1       0.7888743938E-04       7   13    1         0.4519744350E-02      0.5582628355E-02

    ------------------------------------------------
       NWT REQUIRED            5 OUTER ITERATIONS 
       AND A TOTAL OF          9 INNER ITERATIONS.
    ------------------------------------------------

 OUTPUT CONTROL FOR STRESS PERIOD    7   TIME STEP    5
    PRINT BUDGET
    SAVE BUDGET
 UBDSV1 SAVING "         STORAGE" ON UNIT 102 AT TIME STEP  5, STRESS PERIOD   7
 UBDSV2 SAVING "   CONSTANT HEAD" ON UNIT 102 AT TIME STEP  5, STRESS PERIOD   7
 UBDSV1 SAVING "FLOW RIGHT FACE " ON UNIT 102 AT TIME STEP  5, STRESS PERIOD   7
 UBDSV1 SAVING "FLOW FRONT FACE " ON UNIT 102 AT TIME STEP  5, STRESS PERIOD   7

  HEAD DEP BOUNDS   PERIOD    7   STEP     5
 BOUNDARY      1   LAYER   1   ROW    13   COL     1   RATE   -0.289632    
 BOUNDARY      2   LAYER   1   ROW    14   COL     9   RATE    0.287935    



 STREAM LISTING     PERIOD      7   STEP        5

 LAYER ROW COL. STREAM  RCH.  FLOW INTO     FLOW TO   FLOW OUT OF   OVRLND.     DIRECT     STREAM       STREAM     STREAM     STREAM   STREAMBED  STREAMBED
                SEG.NO.  NO.  STRM. RCH.    AQUIFER    STRM. RCH.    RUNOFF     PRECIP       ET          HEAD       DEPTH      WIDTH   CONDCTNC.   GRADIENT

   1    1    1     1     1    3.1125E+01  2.7165E-01   3.0853E+01  0.000E+00  0.000E+00  0.000E+00  1.09431E+03  1.259E+00  1.417E+01  6.378E-02  1.420E+00
   1    2    2     1     2    3.0853E+01  4.2045E-01   3.0433E+01  0.000E+00  0.000E+00  0.000E+00  1.08931E+03  1.256E+00  1.411E+01  9.879E-02  1.419E+00
   1    3    3     1     3    3.0433E+01  3.5834E-01   3.0075E+01  0.000E+00  0.000E+00  0.000E+00  1.08367E+03  1.252E+00  1.404E+01  8.427E-02  1.417E+00
   1    3    4     1     4    3.0075E+01  3.2976E-01   2.9745E+01  0.000E+00  0.000E+00  0.000E+00  1.07866E+03  1.249E+00  1.398E+01  7.761E-02  1.416E+00
   1    4    5     2     1    2.7745E+01  3.3390E-01   2.7411E+01  0.000E+00  0.000E+00  0.000E+00  1.07321E+03  1.281E+00  1.200E+01  7.800E-02  1.427E+00
   1    5    6     2     2    2.7411E+01  2.5635E-01   2.7155E+01  0.000E+00  0.000E+00  0.000E+00  1.06778E+03  1.273E+00  1.200E+01  6.000E-02  1.424E+00
   1    6    6     2     3    2.7155E+01  2.5592E-01   2.6899E+01  0.000E+00  0.000E+00  0.000E+00  1.06306E+03  1.265E+00  1.200E+01  6.000E-02  1.422E+00
   1    7    6     2     4    2.6899E+01  2.5549E-01   2.6643E+01  0.000E+00  0.000E+00  0.000E+00  1.05833E+03  1.258E+00  1.200E+01  6.000E-02  1.419E+00
   1    8    6     2     5    2.6643E+01  2.5506E-01   2.6388E+01  0.000E+00  0.000E+00  0.000E+00  1.05361E+03  1.251E+00  1.200E+01  6.000E-02  1.417E+00
   1    3    5     3     1    2.0000E+00  2.8252E-01   1.7175E+00  0.000E+00  0.000E+00  0.000E+00  1.07555E+03  1.909E+00  9.636E+00  7.227E-02  1.955E+00
   1    3    6     3     2    1.7175E+00  2.4905E-01   1.4684E+00  0.000E+00  0.000E+00  0.000E+00  1.07264E+03  1.727E+00  8.909E+00  6.682E-02  1.864E+00
   1    3    7     3     3    1.4684E+00  1.9718E-01   1.2712E+00  0.000E+00  0.000E+00  0.000E+00  1.06987E+03  1.555E+00  8.218E+00  5.547E-02  1.777E+00
   1    4    8     3     4    1.2712E+00  2.2567E-01   1.0456E+00  0.000E+00  0.000E+00  0.000E+00  1.06682E+03  1.364E+00  7.455E+00  6.709E-02  1.682E+00
   1    5    8     3     5    1.0456E+00  1.5790E-01   8.8768E-01  0.000E+00  0.000E+00  0.000E+00  1.06362E+03  1.164E+00  6.655E+00  4.991E-02  1.582E+00
   1    6    8     3     6    8.8768E-01  5.5980E-02   8.3170E-01  0.000E+00  0.000E+00  0.000E+00  1.06158E+03  1.036E+00  6.145E+00  1.844E-02  1.518E+00
   1    5   10     4     1    1.0000E+01  9.0919E-02   9.9091E+00  0.000E+00  0.000E+00  0.000E+00  1.07836E+03  6.368E-01  1.000E+01  2.500E-02  1.212E+00
   1    5    9     4     2    9.9091E+00  1.8158E-01   9.7275E+00  0.000E+00  0.000E+00  0.000E+00  1.07154E+03  6.315E-01  1.000E+01  5.000E-02  1.211E+00
   1    6    8     4     3    9.7275E+00  1.2689E-01   9.6006E+00  0.000E+00  0.000E+00  0.000E+00  1.06381E+03  6.256E-01  1.000E+01  3.500E-02  1.209E+00
   1    6    8     5     1    1.0432E+01  2.2686E-01   1.0205E+01  0.000E+00  0.000E+00  0.000E+00  1.05868E+03  6.790E-01  1.542E+01  6.166E-02  1.226E+00
   1    7    7     5     2    1.0205E+01  2.7894E-01   9.9265E+00  0.000E+00  0.000E+00  0.000E+00  1.05417E+03  6.732E-01  1.519E+01  7.594E-02  1.224E+00
   1    8    7     5     3    9.9265E+00  1.9221E-01   9.7343E+00  0.000E+00  0.000E+00  0.000E+00  1.04992E+03  6.676E-01  1.497E+01  5.241E-02  1.223E+00
   1    8    6     5     4    9.7343E+00  1.3577E-01   9.5985E+00  0.000E+00  0.000E+00  0.000E+00  1.04691E+03  6.637E-01  1.482E+01  3.706E-02  1.221E+00
   1    9    6     6     1    9.5985E+00  2.2097E-01   9.3776E+00  0.000E+00  0.000E+00  0.000E+00  1.04341E+03  6.828E-01  1.200E+01  6.000E-02  1.228E+00
   1   10    7     6     2    9.3776E+00  2.2039E-01   9.1572E+00  0.000E+00  0.000E+00  0.000E+00  1.03885E+03  6.732E-01  1.200E+01  6.000E-02  1.224E+00
   1   11    7     6     3    9.1572E+00  2.1981E-01   8.9374E+00  0.000E+00  0.000E+00  0.000E+00  1.03430E+03  6.636E-01  1.200E+01  6.000E-02  1.221E+00
   1   12    7     6     4    8.9374E+00  2.1923E-01   8.7181E+00  0.000E+00  0.000E+00  0.000E+00  1.02974E+03  6.539E-01  1.200E+01  6.000E-02  1.218E+00
   1   13    7     6     5    8.7181E+00 -7.2395E-02   8.7905E+00  0.000E+00  0.000E+00  0.000E+00  1.02656E+03  6.506E-01  1.200E+01  2.400E-01 -1.005E-01
   1   14    9     7     1    1.5000E+02  1.3678E+00   1.4863E+02  0.000E+00  0.000E+00  0.000E+00  1.03987E+03  2.288E+00  5.529E+01  5.593E-01  8.152E-01
   1   13    8     7     2    1.4863E+02  1.9153E+00   1.4672E+02  0.000E+00  0.000E+00  0.000E+00  1.03478E+03  2.279E+00  5.526E+01  6.148E-01  1.039E+00
   1   13    7     7     3    1.4672E+02  1.5790E+00   1.4514E+02  0.000E+00  0.000E+00  0.000E+00  1.02969E+03  2.270E+00  5.521E+01  5.584E-01  9.425E-01
   1   13    6     8     1    1.5393E+02  9.2653E-01   1.5300E+02  0.000E+00  0.000E+00  0.000E+00  1.02472E+03  2.841E+00  4.120E+01  4.198E-01  7.357E-01
   1   13    5     8     2    1.5300E+02  1.8750E-01   1.5281E+02  0.000E+00  0.000E+00  0.000E+00  1.01846E+03  2.837E+00  4.114E+01  4.192E-01  1.491E-01
   1   13    4     8     3    1.5281E+02 -2.6012E+00   1.5542E+02  0.000E+00  0.000E+00  0.000E+00  1.01222E+03  2.846E+00  4.126E+01  4.205E+00 -2.062E-01
   1   13    3     8     4    1.5542E+02 -3.8603E+00   1.5928E+02  0.000E+00  0.000E+00  0.000E+00  1.00599E+03  2.868E+00  4.158E+01  4.237E+00 -3.037E-01
   1   13    2     8     5    1.5928E+02 -2.8863E+00   1.6216E+02  0.000E+00  0.000E+00  0.000E+00  9.99766E+02  2.891E+00  4.192E+01  4.271E+00 -2.252E-01
   1   13    1     8     6    1.6216E+02 -2.1634E+00   1.6433E+02  0.000E+00  0.000E+00  0.000E+00  9.94783E+02  2.908E+00  4.216E+01  2.578E+00 -2.797E-01
   1    8    6     9     1    2.6388E+01  0.0000E+00   2.6388E+01  0.000E+00  0.000E+00  0.000E+00  1.08281E+03  4.056E+00  4.000E+00  0.000E+00  2.352E+00
   1    8    5     9     2    2.6388E+01  0.0000E+00   2.6388E+01  0.000E+00  0.000E+00  0.000E+00  1.08231E+03  4.056E+00  4.000E+00  0.000E+00  2.352E+00



 UBDSV3 SAVING "           GW ET" ON UNIT  61 AT TIME STEP  5, STRESS PERIOD   7
 UBDSV3 SAVING "    UZF RECHARGE" ON UNIT  61 AT TIME STEP  5, STRESS PERIOD   7
 UBDSV3 SAVING " SURFACE LEAKAGE" ON UNIT  61 AT TIME STEP  5, STRESS PERIOD   7
 UBDSV3 SAVING "       HORT+DUNN" ON UNIT  61 AT TIME STEP  5, STRESS PERIOD   7
 UBDSV3 SAVING "  STORAGE CHANGE" ON UNIT  61 AT TIME STEP  5, STRESS PERIOD   7


UNSATURATED ZONE PACKAGE VOLUMETRIC BUDGET FOR  TIME STEP     5 STRESS PERIOD    7
  ------------------------------------------------------------------------------



     CUMULATIVE VOLUMES      L**3       RATES FOR THIS TIME STEP      L**3/T
     ------------------                 ------------------------

           IN:                                      IN:
           ---                                      ---
        INFILTRATION =    98363648.7542          INFILTRATION =          30.8855

          OUT:                                     OUT:
          ----                                     ----
              UZF ET =    78000696.2422                UZF ET =          26.6218
        UZF RECHARGE =       73224.0000          UZF RECHARGE =       0.0000E+00

            IN - OUT =    20289728.5120              IN - OUT =           4.2637

          STORAGE:                                 STORAGE:
          --------                                 --------
      STORAGE CHANGE =    20289727.5607        STORAGE CHANGE =           4.2637

 PERCENT DISCREPANCY IS DIFFERENCE BETWEEN IN-OUT MINUS CHANGE IN STORAGE
 DIVIDED BY THE AVERAGE OF IN AND OUT TIMES 100

 PERCENT DISCREPANCY =           0.00     PERCENT DISCREPANCY =           0.00






 

            AG WELLS      PERIOD    7   STEP   5
 AG WELL      1   LAYER   1   ROW     6   COL     4   RATE   -1.487541E-02
 AG WELL      2   LAYER   1   ROW     6   COL     5   RATE   -1.487541E-02
 AG WELL      3   LAYER   1   ROW     7   COL     4   RATE   -1.487541E-02
 AG WELL      4   LAYER   1   ROW     7   COL     5   RATE   -1.487541E-02
 AG WELL      5   LAYER   1   ROW     8   COL     4   RATE   -1.487541E-02
 AG WELL      6   LAYER   1   ROW     8   COL     5   RATE   -1.487541E-02
 
 

   DIVERSION SEGMENTS     PERIOD    7   STEP   5
 SEGMENT      9   RATE     26.3882    
 
 

        SW IRRIGATION     PERIOD    7   STEP   5
 SEGMENT      9   ROW     6   COL     4   RATE     4.39812    
 SEGMENT      9   ROW     6   COL     5   RATE     4.39812    
 SEGMENT      9   ROW     7   COL     4   RATE     4.39812    
 SEGMENT      9   ROW     7   COL     5   RATE     4.39812    
 SEGMENT      9   ROW     8   COL     4   RATE     4.39812    
 SEGMENT      9   ROW     8   COL     5   RATE     4.39812    
 
 

        GW IRRIGATION     PERIOD    7   STEP   5
 AG WELL      1   ROW     6   COL     4   RATE    1.487541E-02
 AG WELL      2   ROW     6   COL     5   RATE    1.487541E-02
 AG WELL      3   ROW     7   COL     4   RATE    1.487541E-02
 AG WELL      4   ROW     7   COL     5   RATE    1.487541E-02
 AG WELL      5   ROW     8   COL     4   RATE    1.487541E-02
 AG WELL      6   ROW     8   COL     5   RATE    1.487541E-02
 
1
  VOLUMETRIC BUDGET FOR AGRICULTURAL FIELDS AT  END OF TIME STEP    5, STRESS PERIOD   7
  ------------------------------------------------------------------------------

     CUMULATIVE VOLUMES      L**3       RATES FOR THIS TIME STEP      L**3/T
     ------------------                 ------------------------

           IN:                                      IN:
           ---                                      ---
               AG WELLS  =       71010.7031                 AG WELLS  =       8.9252E-02
      DIVERSION SEGMENTS =    38357548.0000        DIVERSION SEGMENTS =          26.3882
           GW IRRIGATION =           0.0000             GW IRRIGATION =           0.0000
           SW IRRIGATION =           0.0000             SW IRRIGATION =           0.0000
        SYSTEM LOSSES GW =           0.0000          SYSTEM LOSSES GW =           0.0000
        SYSTEM LOSSES SW =           0.0000          SYSTEM LOSSES SW =           0.0000

                TOTAL IN =    38428560.0000                  TOTAL IN =          26.4774

          OUT:                                     OUT:
          ----                                     ----
               AG WELLS  =           0.0000                 AG WELLS  =           0.0000
      DIVERSION SEGMENTS =           0.0000        DIVERSION SEGMENTS =           0.0000
           GW IRRIGATION =       71010.7031             GW IRRIGATION =       8.9252E-02
           SW IRRIGATION =    38358316.0000             SW IRRIGATION =          26.3887
        SYSTEM LOSSES GW =           0.0000          SYSTEM LOSSES GW =           0.0000
        SYSTEM LOSSES SW =           0.0000          SYSTEM LOSSES SW =           0.0000

               TOTAL OUT =    38429328.0000                 TOTAL OUT =          26.4780

                IN - OUT =        -768.0000                  IN - OUT =      -5.2834E-04

     PERCENT DISCREPANCY =          -0.00         PERCENT DISCREPANCY =          -0.00



1
  VOLUMETRIC BUDGET FOR ENTIRE MODEL AT END OF TIME STEP    5, STRESS PERIOD   7
  ------------------------------------------------------------------------------

     CUMULATIVE VOLUMES      L**3       RATES FOR THIS TIME STEP      L**3/T
     ------------------                 ------------------------

           IN:                                      IN:
           ---                                      ---
             STORAGE     =     8827741.0000               STORAGE     =           1.7983
       CONSTANT HEAD     =           0.0000         CONSTANT HEAD     =           0.0000
     HEAD DEP BOUNDS     =     3936391.0000       HEAD DEP BOUNDS     =           0.2879
      STREAM LEAKAGE     =   161536352.0000        STREAM LEAKAGE     =          11.9949
        UZF RECHARGE     =       73223.9531          UZF RECHARGE     =           0.0000
               GW ET     =           0.0000                 GW ET     =           0.0000
     SURFACE LEAKAGE     =           0.0000       SURFACE LEAKAGE     =           0.0000
           AG WELLS      =           0.0000             AG WELLS      =           0.0000

                TOTAL IN =   174373696.0000                  TOTAL IN =          14.0811

          OUT:                                     OUT:
          ----                                     ----
             STORAGE     =    30836246.0000               STORAGE     =           2.1186
       CONSTANT HEAD     =           0.0000         CONSTANT HEAD     =           0.0000
     HEAD DEP BOUNDS     =     3945547.0000       HEAD DEP BOUNDS     =           0.2896
      STREAM LEAKAGE     =   139524288.0000        STREAM LEAKAGE     =          11.5837
        UZF RECHARGE     =           0.0000          UZF RECHARGE     =           0.0000
               GW ET     =           0.0000                 GW ET     =           0.0000
     SURFACE LEAKAGE     =           0.0000       SURFACE LEAKAGE     =           0.0000
           AG WELLS      =       71010.7031             AG WELLS      =       8.9252E-02

               TOTAL OUT =   174377088.0000                 TOTAL OUT =          14.0812

                IN - OUT =       -3392.0000                  IN - OUT =      -2.9564E-05

     PERCENT DISCREPANCY =          -0.00         PERCENT DISCREPANCY =          -0.00






         TIME SUMMARY AT END OF TIME STEP    5 IN STRESS PERIOD    7
                    SECONDS     MINUTES      HOURS       DAYS        YEARS
                    -----------------------------------------------------------
   TIME STEP LENGTH  87667.      1461.1      24.352      1.0147     2.77799E-03
 STRESS PERIOD TIME 4.38333E+05  7305.6      121.76      5.0733     1.38899E-02
         TOTAL TIME 1.36747E+07 2.27912E+05  3798.5      158.27     0.43333    
1
 
 SOLVING FOR HEAD 
                                                   Max.-Head-Change                         Max.-Flux-Residual
  Residual-Control   Outer-Iter.   Inner-Iter.     Column Row Layer    Maximum-Head-Change  Column Row Layer    Maximum-Flux-Residual          L2-NORM 
          0                 1           2             4   13     1       0.4278011480E-02       4   13    1         0.2456884043E+00      0.6020350224E+00
          0                 2           2             4    7     1      -0.3612947971E-01       5    6    1        -0.1942474167E+01      0.4782033814E+01
          0                 3           2             4    7     1       0.3755008490E-01       5    6    1         0.2073183067E+01      0.5094990646E+01
          0                 4           2             4    7     1      -0.1494412948E-02       4    6    1        -0.8583571166E-01      0.2134785986E+00
          0                 5           1             7   13     1       0.4540444500E-04       7   13    1         0.2602172504E-02      0.3882339746E-02

    ------------------------------------------------
       NWT REQUIRED            5 OUTER ITERATIONS 
       AND A TOTAL OF          9 INNER ITERATIONS.
    ------------------------------------------------

 NO OUTPUT CONTROL FOR STRESS PERIOD    7   TIME STEP    6
 
 SOLVING FOR HEAD 
                                                   Max.-Head-Change                         Max.-Flux-Residual
  Residual-Control   Outer-Iter.   Inner-Iter.     Column Row Layer    Maximum-Head-Change  Column Row Layer    Maximum-Flux-Residual          L2-NORM 
          0                 1           2             4   13     1       0.4734252566E-02       4   13    1         0.2719966800E+00      0.6280736354E+00
          0                 2           2             4    7     1      -0.2369909376E-01       5    6    1        -0.1274856634E+01      0.3140776072E+01
          0                 3           2             4    7     1       0.2405433463E-01       5    6    1         0.1328127024E+01      0.3264630126E+01
          0                 4           2             4    7     1      -0.7000913861E-03       5    6    1        -0.3973323224E-01      0.9792987241E-01
          0                 5           1             4    7     1       0.6996958196E-04       5    6    1         0.4080934000E-02      0.1068971326E-01

    ------------------------------------------------
       NWT REQUIRED            5 OUTER ITERATIONS 
       AND A TOTAL OF          9 INNER ITERATIONS.
    ------------------------------------------------

 NO OUTPUT CONTROL FOR STRESS PERIOD    7   TIME STEP    7
 
 SOLVING FOR HEAD 
                                                   Max.-Head-Change                         Max.-Flux-Residual
  Residual-Control   Outer-Iter.   Inner-Iter.     Column Row Layer    Maximum-Head-Change  Column Row Layer    Maximum-Flux-Residual          L2-NORM 
          0                 1           2             4   13     1       0.4910959702E-02       4   13    1         0.2821538487E+00      0.6238704667E+00
          0                 2           2             4    7     1      -0.4282278251E-01       5    6    1        -0.2301914446E+01      0.5665652175E+01
          0                 3           2             4    7     1       0.4097950952E-01       5    6    1         0.2262512059E+01      0.5559626829E+01
          0                 4           2             4    7     1      -0.1630857140E-02       4    6    1        -0.9349009129E-01      0.2382658529E+00
          0                 5           1             7   13     1       0.7864377568E-04       7   13    1         0.4505682051E-02      0.5501426411E-02

    ------------------------------------------------
       NWT REQUIRED            5 OUTER ITERATIONS 
       AND A TOTAL OF          9 INNER ITERATIONS.
    ------------------------------------------------

 NO OUTPUT CONTROL FOR STRESS PERIOD    7   TIME STEP    8
 
 SOLVING FOR HEAD 
                                                   Max.-Head-Change                         Max.-Flux-Residual
  Residual-Control   Outer-Iter.   Inner-Iter.     Column Row Layer    Maximum-Head-Change  Column Row Layer    Maximum-Flux-Residual          L2-NORM 
          0                 1           2             4   13     1       0.5378022703E-02       4   13    1         0.3090929596E+00      0.6686217238E+00
          0                 2           2             4    7     1      -0.3722816972E-01       5    6    1        -0.2001854803E+01      0.4928859210E+01
          0                 3           2             4    7     1       0.3869091219E-01       5    6    1         0.2136192244E+01      0.5249840449E+01
          0                 4           2             4    7     1      -0.1539793249E-02       4    6    1        -0.8834314618E-01      0.2208083961E+00
          0                 5           1             7   13     1       0.5242523711E-04       7   13    1         0.3004309070E-02      0.4227207071E-02

    ------------------------------------------------
       NWT REQUIRED            5 OUTER ITERATIONS 
       AND A TOTAL OF          9 INNER ITERATIONS.
    ------------------------------------------------

 NO OUTPUT CONTROL FOR STRESS PERIOD    7   TIME STEP    9
 
 SOLVING FOR HEAD 
                                                   Max.-Head-Change                         Max.-Flux-Residual
  Residual-Control   Outer-Iter.   Inner-Iter.     Column Row Layer    Maximum-Head-Change  Column Row Layer    Maximum-Flux-Residual          L2-NORM 
          0                 1           2             4   13     1       0.5755552588E-02       4   13    1         0.3308468535E+00      0.6935834968E+00
          0                 2           2             4    7     1      -0.3623823605E-01       5    6    1        -0.1948623633E+01      0.4798412636E+01
          0                 3           2             4    7     1       0.3766019547E-01       5    6    1         0.2079284075E+01      0.5110053381E+01
          0                 4           2             4    7     1      -0.1498783264E-02       4    6    1        -0.8603551689E-01      0.2141188747E+00
          0                 5           1             7   13     1       0.4568246294E-04       7   13    1         0.2618110155E-02      0.3900608673E-02

    ------------------------------------------------
       NWT REQUIRED            5 OUTER ITERATIONS 
       AND A TOTAL OF          9 INNER ITERATIONS.
    ------------------------------------------------

 OUTPUT CONTROL FOR STRESS PERIOD    7   TIME STEP   10
    PRINT BUDGET
    SAVE BUDGET
 UBDSV1 SAVING "         STORAGE" ON UNIT 102 AT TIME STEP 10, STRESS PERIOD   7
 UBDSV2 SAVING "   CONSTANT HEAD" ON UNIT 102 AT TIME STEP 10, STRESS PERIOD   7
 UBDSV1 SAVING "FLOW RIGHT FACE " ON UNIT 102 AT TIME STEP 10, STRESS PERIOD   7
 UBDSV1 SAVING "FLOW FRONT FACE " ON UNIT 102 AT TIME STEP 10, STRESS PERIOD   7

  HEAD DEP BOUNDS   PERIOD    7   STEP    10
 BOUNDARY      1   LAYER   1   ROW    13   COL     1   RATE   -0.289165    
 BOUNDARY      2   LAYER   1   ROW    14   COL     9   RATE    0.287939    



 STREAM LISTING     PERIOD      7   STEP       10

 LAYER ROW COL. STREAM  RCH.  FLOW INTO     FLOW TO   FLOW OUT OF   OVRLND.     DIRECT     STREAM       STREAM     STREAM     STREAM   STREAMBED  STREAMBED
                SEG.NO.  NO.  STRM. RCH.    AQUIFER    STRM. RCH.    RUNOFF     PRECIP       ET          HEAD       DEPTH      WIDTH   CONDCTNC.   GRADIENT

   1    1    1     1     1    3.1125E+01  2.7165E-01   3.0853E+01  0.000E+00  0.000E+00  0.000E+00  1.09431E+03  1.259E+00  1.417E+01  6.378E-02  1.420E+00
   1    2    2     1     2    3.0853E+01  4.2045E-01   3.0433E+01  0.000E+00  0.000E+00  0.000E+00  1.08931E+03  1.256E+00  1.411E+01  9.879E-02  1.419E+00
   1    3    3     1     3    3.0433E+01  3.5834E-01   3.0075E+01  0.000E+00  0.000E+00  0.000E+00  1.08367E+03  1.252E+00  1.404E+01  8.427E-02  1.417E+00
   1    3    4     1     4    3.0075E+01  3.2976E-01   2.9745E+01  0.000E+00  0.000E+00  0.000E+00  1.07866E+03  1.249E+00  1.398E+01  7.761E-02  1.416E+00
   1    4    5     2     1    2.7745E+01  3.3390E-01   2.7411E+01  0.000E+00  0.000E+00  0.000E+00  1.07321E+03  1.281E+00  1.200E+01  7.800E-02  1.427E+00
   1    5    6     2     2    2.7411E+01  2.5635E-01   2.7155E+01  0.000E+00  0.000E+00  0.000E+00  1.06778E+03  1.273E+00  1.200E+01  6.000E-02  1.424E+00
   1    6    6     2     3    2.7155E+01  2.5592E-01   2.6899E+01  0.000E+00  0.000E+00  0.000E+00  1.06306E+03  1.265E+00  1.200E+01  6.000E-02  1.422E+00
   1    7    6     2     4    2.6899E+01  2.5549E-01   2.6643E+01  0.000E+00  0.000E+00  0.000E+00  1.05833E+03  1.258E+00  1.200E+01  6.000E-02  1.419E+00
   1    8    6     2     5    2.6643E+01  2.5506E-01   2.6388E+01  0.000E+00  0.000E+00  0.000E+00  1.05361E+03  1.251E+00  1.200E+01  6.000E-02  1.417E+00
   1    3    5     3     1    2.0000E+00  2.8252E-01   1.7175E+00  0.000E+00  0.000E+00  0.000E+00  1.07555E+03  1.909E+00  9.636E+00  7.227E-02  1.955E+00
   1    3    6     3     2    1.7175E+00  2.4905E-01   1.4684E+00  0.000E+00  0.000E+00  0.000E+00  1.07264E+03  1.727E+00  8.909E+00  6.682E-02  1.864E+00
   1    3    7     3     3    1.4684E+00  1.9718E-01   1.2712E+00  0.000E+00  0.000E+00  0.000E+00  1.06987E+03  1.555E+00  8.218E+00  5.547E-02  1.777E+00
   1    4    8     3     4    1.2712E+00  2.2567E-01   1.0456E+00  0.000E+00  0.000E+00  0.000E+00  1.06682E+03  1.364E+00  7.455E+00  6.709E-02  1.682E+00
   1    5    8     3     5    1.0456E+00  1.5790E-01   8.8768E-01  0.000E+00  0.000E+00  0.000E+00  1.06362E+03  1.164E+00  6.655E+00  4.991E-02  1.582E+00
   1    6    8     3     6    8.8768E-01  5.5980E-02   8.3170E-01  0.000E+00  0.000E+00  0.000E+00  1.06158E+03  1.036E+00  6.145E+00  1.844E-02  1.518E+00
   1    5   10     4     1    1.0000E+01  9.0919E-02   9.9091E+00  0.000E+00  0.000E+00  0.000E+00  1.07836E+03  6.368E-01  1.000E+01  2.500E-02  1.212E+00
   1    5    9     4     2    9.9091E+00  1.8158E-01   9.7275E+00  0.000E+00  0.000E+00  0.000E+00  1.07154E+03  6.315E-01  1.000E+01  5.000E-02  1.211E+00
   1    6    8     4     3    9.7275E+00  1.2689E-01   9.6006E+00  0.000E+00  0.000E+00  0.000E+00  1.06381E+03  6.256E-01  1.000E+01  3.500E-02  1.209E+00
   1    6    8     5     1    1.0432E+01  2.2686E-01   1.0205E+01  0.000E+00  0.000E+00  0.000E+00  1.05868E+03  6.790E-01  1.542E+01  6.166E-02  1.226E+00
   1    7    7     5     2    1.0205E+01  2.7894E-01   9.9265E+00  0.000E+00  0.000E+00  0.000E+00  1.05417E+03  6.732E-01  1.519E+01  7.594E-02  1.224E+00
   1    8    7     5     3    9.9265E+00  1.9221E-01   9.7343E+00  0.000E+00  0.000E+00  0.000E+00  1.04992E+03  6.676E-01  1.497E+01  5.241E-02  1.223E+00
   1    8    6     5     4    9.7343E+00  1.3577E-01   9.5985E+00  0.000E+00  0.000E+00  0.000E+00  1.04691E+03  6.637E-01  1.482E+01  3.706E-02  1.221E+00
   1    9    6     6     1    1.2672E+01  2.2847E-01   1.2444E+01  0.000E+00  0.000E+00  0.000E+00  1.04354E+03  8.078E-01  1.200E+01  6.000E-02  1.269E+00
   1   10    7     6     2    1.2444E+01  2.2794E-01   1.2216E+01  0.000E+00  0.000E+00  0.000E+00  1.03898E+03  7.990E-01  1.200E+01  6.000E-02  1.266E+00
   1   11    7     6     3    1.2216E+01  2.2741E-01   1.1988E+01  0.000E+00  0.000E+00  0.000E+00  1.03443E+03  7.901E-01  1.200E+01  6.000E-02  1.263E+00
   1   12    7     6     4    1.1988E+01  2.2687E-01   1.1761E+01  0.000E+00  0.000E+00  0.000E+00  1.02987E+03  7.812E-01  1.200E+01  6.000E-02  1.260E+00
   1   13    7     6     5    1.1761E+01 -4.1443E-02   1.1803E+01  0.000E+00  0.000E+00  0.000E+00  1.02669E+03  7.775E-01  1.200E+01  2.400E-01 -5.756E-02
   1   14    9     7     1    1.5000E+02  1.3678E+00   1.4863E+02  0.000E+00  0.000E+00  0.000E+00  1.03987E+03  2.288E+00  5.529E+01  5.593E-01  8.152E-01
   1   13    8     7     2    1.4863E+02  1.9152E+00   1.4672E+02  0.000E+00  0.000E+00  0.000E+00  1.03478E+03  2.279E+00  5.526E+01  6.148E-01  1.038E+00
   1   13    7     7     3    1.4672E+02  1.5801E+00   1.4514E+02  0.000E+00  0.000E+00  0.000E+00  1.02969E+03  2.270E+00  5.521E+01  5.584E-01  9.432E-01
   1   13    6     8     1    1.5694E+02  9.4391E-01   1.5600E+02  0.000E+00  0.000E+00  0.000E+00  1.02474E+03  2.862E+00  4.150E+01  4.229E-01  7.441E-01
   1   13    5     8     2    1.5600E+02  1.9925E-01   1.5580E+02  0.000E+00  0.000E+00  0.000E+00  1.01848E+03  2.858E+00  4.144E+01  4.223E-01  1.573E-01
   1   13    4     8     3    1.5580E+02 -2.4597E+00   1.5826E+02  0.000E+00  0.000E+00  0.000E+00  1.01224E+03  2.866E+00  4.155E+01  4.234E+00 -1.936E-01
   1   13    3     8     4    1.5826E+02 -3.7329E+00   1.6199E+02  0.000E+00  0.000E+00  0.000E+00  1.00601E+03  2.887E+00  4.186E+01  4.265E+00 -2.917E-01
   1   13    2     8     5    1.6199E+02 -2.7464E+00   1.6474E+02  0.000E+00  0.000E+00  0.000E+00  9.99783E+02  2.908E+00  4.217E+01  4.298E+00 -2.130E-01
   1   13    1     8     6    1.6474E+02 -2.1003E+00   1.6684E+02  0.000E+00  0.000E+00  0.000E+00  9.94800E+02  2.925E+00  4.241E+01  2.593E+00 -2.700E-01
   1    8    6     9     1    2.3315E+01  0.0000E+00   2.3315E+01  0.000E+00  0.000E+00  0.000E+00  1.08252E+03  3.766E+00  4.000E+00  0.000E+00  2.255E+00
   1    8    5     9     2    2.3315E+01  0.0000E+00   2.3315E+01  0.000E+00  0.000E+00  0.000E+00  1.08202E+03  3.766E+00  4.000E+00  0.000E+00  2.255E+00



 UBDSV3 SAVING "           GW ET" ON UNIT  61 AT TIME STEP 10, STRESS PERIOD   7
 UBDSV3 SAVING "    UZF RECHARGE" ON UNIT  61 AT TIME STEP 10, STRESS PERIOD   7
 UBDSV3 SAVING " SURFACE LEAKAGE" ON UNIT  61 AT TIME STEP 10, STRESS PERIOD   7
 UBDSV3 SAVING "       HORT+DUNN" ON UNIT  61 AT TIME STEP 10, STRESS PERIOD   7
 UBDSV3 SAVING "  STORAGE CHANGE" ON UNIT  61 AT TIME STEP 10, STRESS PERIOD   7


UNSATURATED ZONE PACKAGE VOLUMETRIC BUDGET FOR  TIME STEP    10 STRESS PERIOD    7
  ------------------------------------------------------------------------------



     CUMULATIVE VOLUMES      L**3       RATES FOR THIS TIME STEP      L**3/T
     ------------------                 ------------------------

           IN:                                      IN:
           ---                                      ---
        INFILTRATION =   110260478.2883          INFILTRATION =          27.7225

          OUT:                                     OUT:
          ----                                     ----
              UZF ET =    89661994.5264                UZF ET =          26.6081
        UZF RECHARGE =       73224.0000          UZF RECHARGE =       0.0000E+00

            IN - OUT =    20525259.7620              IN - OUT =           1.1144

          STORAGE:                                 STORAGE:
          --------                                 --------
      STORAGE CHANGE =    20525258.7957        STORAGE CHANGE =           1.1144

 PERCENT DISCREPANCY IS DIFFERENCE BETWEEN IN-OUT MINUS CHANGE IN STORAGE
 DIVIDED BY THE AVERAGE OF IN AND OUT TIMES 100

 PERCENT DISCREPANCY =           0.00     PERCENT DISCREPANCY =           0.00






 

            AG WELLS      PERIOD    7   STEP  10
 AG WELL      1   LAYER   1   ROW     6   COL     4   RATE     0.00000    
 AG WELL      2   LAYER   1   ROW     6   COL     5   RATE     0.00000    
 AG WELL      3   LAYER   1   ROW     7   COL     4   RATE     0.00000    
 AG WELL      4   LAYER   1   ROW     7   COL     5   RATE     0.00000    
 AG WELL      5   LAYER   1   ROW     8   COL     4   RATE     0.00000    
 AG WELL      6   LAYER   1   ROW     8   COL     5   RATE     0.00000    
 
 

   DIVERSION SEGMENTS     PERIOD    7   STEP  10
 SEGMENT      9   RATE     23.3146    
 
 

        SW IRRIGATION     PERIOD    7   STEP  10
 SEGMENT      9   ROW     6   COL     4   RATE     3.88584    
 SEGMENT      9   ROW     6   COL     5   RATE     3.88584    
 SEGMENT      9   ROW     7   COL     4   RATE     3.88584    
 SEGMENT      9   ROW     7   COL     5   RATE     3.88584    
 SEGMENT      9   ROW     8   COL     4   RATE     3.88584    
 SEGMENT      9   ROW     8   COL     5   RATE     3.88584    
 
 

        GW IRRIGATION     PERIOD    7   STEP  10
 AG WELL      1   ROW     6   COL     4   RATE     0.00000    
 AG WELL      2   ROW     6   COL     5   RATE     0.00000    
 AG WELL      3   ROW     7   COL     4   RATE     0.00000    
 AG WELL      4   ROW     7   COL     5   RATE     0.00000    
 AG WELL      5   ROW     8   COL     4   RATE     0.00000    
 AG WELL      6   ROW     8   COL     5   RATE     0.00000    
 
1
  VOLUMETRIC BUDGET FOR AGRICULTURAL FIELDS AT  END OF TIME STEP   10, STRESS PERIOD   7
  ------------------------------------------------------------------------------

     CUMULATIVE VOLUMES      L**3       RATES FOR THIS TIME STEP      L**3/T
     ------------------                 ------------------------

           IN:                                      IN:
           ---                                      ---
               AG WELLS  =      180331.5156                 AG WELLS  =           0.0000
      DIVERSION SEGMENTS =    48219508.0000        DIVERSION SEGMENTS =          23.3146
           GW IRRIGATION =           0.0000             GW IRRIGATION =           0.0000
           SW IRRIGATION =           0.0000             SW IRRIGATION =           0.0000
        SYSTEM LOSSES GW =           0.0000          SYSTEM LOSSES GW =           0.0000
        SYSTEM LOSSES SW =           0.0000          SYSTEM LOSSES SW =           0.0000

                TOTAL IN =    48399840.0000                  TOTAL IN =          23.3146

          OUT:                                     OUT:
          ----                                     ----
               AG WELLS  =           0.0000                 AG WELLS  =           0.0000
      DIVERSION SEGMENTS =           0.0000        DIVERSION SEGMENTS =           0.0000
           GW IRRIGATION =      180331.5156             GW IRRIGATION =           0.0000
           SW IRRIGATION =    48220476.0000             SW IRRIGATION =          23.3150
        SYSTEM LOSSES GW =           0.0000          SYSTEM LOSSES GW =           0.0000
        SYSTEM LOSSES SW =           0.0000          SYSTEM LOSSES SW =           0.0000

               TOTAL OUT =    48400808.0000                 TOTAL OUT =          23.3150

                IN - OUT =        -968.0000                  IN - OUT =      -4.6539E-04

     PERCENT DISCREPANCY =          -0.00         PERCENT DISCREPANCY =          -0.00



1
  VOLUMETRIC BUDGET FOR ENTIRE MODEL AT END OF TIME STEP   10, STRESS PERIOD   7
  ------------------------------------------------------------------------------

     CUMULATIVE VOLUMES      L**3       RATES FOR THIS TIME STEP      L**3/T
     ------------------                 ------------------------

           IN:                                      IN:
           ---                                      ---
             STORAGE     =     9457009.0000               STORAGE     =           1.2022
       CONSTANT HEAD     =           0.0000         CONSTANT HEAD     =           0.0000
     HEAD DEP BOUNDS     =     4062603.7500       HEAD DEP BOUNDS     =           0.2879
      STREAM LEAKAGE     =   166825648.0000        STREAM LEAKAGE     =          12.0554
        UZF RECHARGE     =       73223.9531          UZF RECHARGE     =           0.0000
               GW ET     =           0.0000                 GW ET     =           0.0000
     SURFACE LEAKAGE     =           0.0000       SURFACE LEAKAGE     =           0.0000
           AG WELLS      =           0.0000             AG WELLS      =           0.0000

                TOTAL IN =   180418480.0000                  TOTAL IN =          13.5455

          OUT:                                     OUT:
          ----                                     ----
             STORAGE     =    31771218.0000               STORAGE     =           2.1756
       CONSTANT HEAD     =           0.0000         CONSTANT HEAD     =           0.0000
     HEAD DEP BOUNDS     =     4072382.0000       HEAD DEP BOUNDS     =           0.2892
      STREAM LEAKAGE     =   144397872.0000        STREAM LEAKAGE     =          11.0808
        UZF RECHARGE     =           0.0000          UZF RECHARGE     =           0.0000
               GW ET     =           0.0000                 GW ET     =           0.0000
     SURFACE LEAKAGE     =           0.0000       SURFACE LEAKAGE     =           0.0000
           AG WELLS      =      180331.5156             AG WELLS      =           0.0000

               TOTAL OUT =   180421808.0000                 TOTAL OUT =          13.5455

                IN - OUT =       -3328.0000                  IN - OUT =       2.9564E-05

     PERCENT DISCREPANCY =          -0.00         PERCENT DISCREPANCY =           0.00






         TIME SUMMARY AT END OF TIME STEP   10 IN STRESS PERIOD    7
                    SECONDS     MINUTES      HOURS       DAYS        YEARS
                    -----------------------------------------------------------
   TIME STEP LENGTH  87667.      1461.1      24.352      1.0147     2.77799E-03
 STRESS PERIOD TIME 8.76667E+05  14611.      243.52      10.147     2.77799E-02
         TOTAL TIME 1.41131E+07 2.35218E+05  3920.3      163.35     0.44722    
1
 
 SOLVING FOR HEAD 
                                                   Max.-Head-Change                         Max.-Flux-Residual
  Residual-Control   Outer-Iter.   Inner-Iter.     Column Row Layer    Maximum-Head-Change  Column Row Layer    Maximum-Flux-Residual          L2-NORM 
          0                 1           2             4   13     1       0.6074219763E-02       4   13    1         0.3491998766E+00      0.7156801347E+00
          0                 2           2             4    7     1      -0.1206125810E-01       5    6    1        -0.6501072256E+00      0.1607653942E+01
          0                 3           2             4    7     1       0.3938337277E-02       5    6    1         0.2175902902E+00      0.5508008366E+00
          0                 4           2             4   13     1      -0.1011767015E-02       4   13    1        -0.5960087236E-01      0.1091426211E+00
          0                 5           2             4    7     1       0.6009684632E-02       5    6    1         0.3505051822E+00      0.8650822521E+00
          0                 6           2             4    7     1       0.1659427777E-02       4    8    1         0.9678275415E-01      0.2381879712E+00
          0                 7           2             4    7     1       0.4736034471E-03       4    8    1         0.2762168541E-01      0.6802992832E-01
          0                 8           1             4    7     1       0.5300857626E-04       4    8    1         0.3091571936E-02      0.7835117285E-02

    ------------------------------------------------
       NWT REQUIRED            8 OUTER ITERATIONS 
       AND A TOTAL OF         15 INNER ITERATIONS.
    ------------------------------------------------

 NO OUTPUT CONTROL FOR STRESS PERIOD    7   TIME STEP   11
 
 SOLVING FOR HEAD 
                                                   Max.-Head-Change                         Max.-Flux-Residual
  Residual-Control   Outer-Iter.   Inner-Iter.     Column Row Layer    Maximum-Head-Change  Column Row Layer    Maximum-Flux-Residual          L2-NORM 
          0                 1           2             4   13     1       0.6085119211E-02       4   13    1         0.3497766827E+00      0.7044301838E+00
          0                 2           2             4    7     1      -0.3990240910E-01       5    6    1        -0.2145307816E+01      0.5281410238E+01
          0                 3           2             4    7     1       0.4147357486E-01       5    6    1         0.2289803608E+01      0.5627345788E+01
          0                 4           2             4    7     1      -0.1650533970E-02       4    6    1        -0.9468054020E-01      0.2392190316E+00
          0                 5           1             7   13     1       0.7011993378E-04       7   13    1         0.4017613955E-02      0.5134056575E-02

    ------------------------------------------------
       NWT REQUIRED            5 OUTER ITERATIONS 
       AND A TOTAL OF          9 INNER ITERATIONS.
    ------------------------------------------------

 NO OUTPUT CONTROL FOR STRESS PERIOD    7   TIME STEP   12
 
 SOLVING FOR HEAD 
                                                   Max.-Head-Change                         Max.-Flux-Residual
  Residual-Control   Outer-Iter.   Inner-Iter.     Column Row Layer    Maximum-Head-Change  Column Row Layer    Maximum-Flux-Residual          L2-NORM 
          0                 1           2             4   13     1       0.6416261289E-02       4   13    1         0.3688615502E+00      0.7418071954E+00
          0                 2           2             4    7     1      -0.4106150826E-01       5    6    1        -0.2207501369E+01      0.5436151663E+01
          0                 3           2             4    7     1       0.4257647868E-01       5    6    1         0.2350688004E+01      0.5776997041E+01
          0                 4           2             4    7     1      -0.1694424691E-02       4    6    1        -0.9718683201E-01      0.2469953528E+00
          0                 5           1             7   13     1       0.7875680844E-04       7   13    1         0.4512236511E-02      0.5582465764E-02

    ------------------------------------------------
       NWT REQUIRED            5 OUTER ITERATIONS 
       AND A TOTAL OF          9 INNER ITERATIONS.
    ------------------------------------------------

 NO OUTPUT CONTROL FOR STRESS PERIOD    7   TIME STEP   13
 
 SOLVING FOR HEAD 
                                                   Max.-Head-Change                         Max.-Flux-Residual
  Residual-Control   Outer-Iter.   Inner-Iter.     Column Row Layer    Maximum-Head-Change  Column Row Layer    Maximum-Flux-Residual          L2-NORM 
          0                 1           2             4   13     1       0.6785084407E-02       4   13    1         0.3901082628E+00      0.7685873538E+00
          0                 2           2             4    7     1      -0.3570615540E-01       5    6    1        -0.1919844572E+01      0.4729046186E+01
          0                 3           2             4    7     1       0.3710512611E-01       5    6    1         0.2048624990E+01      0.5034845666E+01
          0                 4           2             4    7     1      -0.1476711648E-02       4    6    1        -0.8485164044E-01      0.2105395768E+00
          0                 5           1             7   13     1       0.4172377521E-04       7   13    1         0.2391377364E-02      0.3718720271E-02

    ------------------------------------------------
       NWT REQUIRED            5 OUTER ITERATIONS 
       AND A TOTAL OF          9 INNER ITERATIONS.
    ------------------------------------------------

 NO OUTPUT CONTROL FOR STRESS PERIOD    7   TIME STEP   14
 
 SOLVING FOR HEAD 
                                                   Max.-Head-Change                         Max.-Flux-Residual
  Residual-Control   Outer-Iter.   Inner-Iter.     Column Row Layer    Maximum-Head-Change  Column Row Layer    Maximum-Flux-Residual          L2-NORM 
          0                 1           2             4   13     1       0.6994925887E-02       4   13    1         0.4021753012E+00      0.7850580760E+00
          0                 2           2             4    7     1      -0.6065612905E-02       5    6    1        -0.3279135666E+00      0.8227642719E+00
          0                 3           2             4    7     1      -0.4584168650E-02       4    8    1        -0.2462431850E+00      0.6068517383E+00
          0                 4           2             4    7     1       0.5590444490E-02       4    8    1         0.3086352238E+00      0.7682436690E+00
          0                 5           2             4    7     1       0.2589586588E-02       5    6    1         0.1429626674E+00      0.3556676088E+00
          0                 6           2             4    7     1      -0.1353819976E-02       5    6    1        -0.7682306797E-01      0.1905715639E+00
          0                 7           2             4    7     1      -0.2362920155E-02       4    8    1        -0.1340836038E+00      0.3320789254E+00
          0                 8           2             4    7     1       0.4396214493E-02       5    6    1         0.2563947537E+00      0.6330601389E+00
          0                 9           2             4    7     1       0.1250248714E-02       4    8    1         0.7291613829E-01      0.1794364916E+00
          0                10           2             4    7     1       0.3318950132E-03       4    8    1         0.1935636236E-01      0.4768694627E-01
          0                11           1             4    7     1       0.3868757629E-04       4    8    1         0.2256275691E-02      0.5755139873E-02

    ------------------------------------------------
       NWT REQUIRED           11 OUTER ITERATIONS 
       AND A TOTAL OF         21 INNER ITERATIONS.
    ------------------------------------------------

 OUTPUT CONTROL FOR STRESS PERIOD    7   TIME STEP   15
    PRINT BUDGET
    SAVE BUDGET
 UBDSV1 SAVING "         STORAGE" ON UNIT 102 AT TIME STEP 15, STRESS PERIOD   7
 UBDSV2 SAVING "   CONSTANT HEAD" ON UNIT 102 AT TIME STEP 15, STRESS PERIOD   7
 UBDSV1 SAVING "FLOW RIGHT FACE " ON UNIT 102 AT TIME STEP 15, STRESS PERIOD   7
 UBDSV1 SAVING "FLOW FRONT FACE " ON UNIT 102 AT TIME STEP 15, STRESS PERIOD   7

  HEAD DEP BOUNDS   PERIOD    7   STEP    15
 BOUNDARY      1   LAYER   1   ROW    13   COL     1   RATE   -0.288846    
 BOUNDARY      2   LAYER   1   ROW    14   COL     9   RATE    0.287942    



 STREAM LISTING     PERIOD      7   STEP       15

 LAYER ROW COL. STREAM  RCH.  FLOW INTO     FLOW TO   FLOW OUT OF   OVRLND.     DIRECT     STREAM       STREAM     STREAM     STREAM   STREAMBED  STREAMBED
                SEG.NO.  NO.  STRM. RCH.    AQUIFER    STRM. RCH.    RUNOFF     PRECIP       ET          HEAD       DEPTH      WIDTH   CONDCTNC.   GRADIENT

   1    1    1     1     1    3.1125E+01  2.7165E-01   3.0853E+01  0.000E+00  0.000E+00  0.000E+00  1.09431E+03  1.259E+00  1.417E+01  6.378E-02  1.420E+00
   1    2    2     1     2    3.0853E+01  4.2045E-01   3.0433E+01  0.000E+00  0.000E+00  0.000E+00  1.08931E+03  1.256E+00  1.411E+01  9.879E-02  1.419E+00
   1    3    3     1     3    3.0433E+01  3.5834E-01   3.0075E+01  0.000E+00  0.000E+00  0.000E+00  1.08367E+03  1.252E+00  1.404E+01  8.427E-02  1.417E+00
   1    3    4     1     4    3.0075E+01  3.2976E-01   2.9745E+01  0.000E+00  0.000E+00  0.000E+00  1.07866E+03  1.249E+00  1.398E+01  7.761E-02  1.416E+00
   1    4    5     2     1    2.7745E+01  3.3390E-01   2.7411E+01  0.000E+00  0.000E+00  0.000E+00  1.07321E+03  1.281E+00  1.200E+01  7.800E-02  1.427E+00
   1    5    6     2     2    2.7411E+01  2.5635E-01   2.7155E+01  0.000E+00  0.000E+00  0.000E+00  1.06778E+03  1.273E+00  1.200E+01  6.000E-02  1.424E+00
   1    6    6     2     3    2.7155E+01  2.5592E-01   2.6899E+01  0.000E+00  0.000E+00  0.000E+00  1.06306E+03  1.265E+00  1.200E+01  6.000E-02  1.422E+00
   1    7    6     2     4    2.6899E+01  2.5549E-01   2.6643E+01  0.000E+00  0.000E+00  0.000E+00  1.05833E+03  1.258E+00  1.200E+01  6.000E-02  1.419E+00
   1    8    6     2     5    2.6643E+01  2.5506E-01   2.6388E+01  0.000E+00  0.000E+00  0.000E+00  1.05361E+03  1.251E+00  1.200E+01  6.000E-02  1.417E+00
   1    3    5     3     1    2.0000E+00  2.8252E-01   1.7175E+00  0.000E+00  0.000E+00  0.000E+00  1.07555E+03  1.909E+00  9.636E+00  7.227E-02  1.955E+00
   1    3    6     3     2    1.7175E+00  2.4905E-01   1.4684E+00  0.000E+00  0.000E+00  0.000E+00  1.07264E+03  1.727E+00  8.909E+00  6.682E-02  1.864E+00
   1    3    7     3     3    1.4684E+00  1.9718E-01   1.2712E+00  0.000E+00  0.000E+00  0.000E+00  1.06987E+03  1.555E+00  8.218E+00  5.547E-02  1.777E+00
   1    4    8     3     4    1.2712E+00  2.2567E-01   1.0456E+00  0.000E+00  0.000E+00  0.000E+00  1.06682E+03  1.364E+00  7.455E+00  6.709E-02  1.682E+00
   1    5    8     3     5    1.0456E+00  1.5790E-01   8.8768E-01  0.000E+00  0.000E+00  0.000E+00  1.06362E+03  1.164E+00  6.655E+00  4.991E-02  1.582E+00
   1    6    8     3     6    8.8768E-01  5.5980E-02   8.3170E-01  0.000E+00  0.000E+00  0.000E+00  1.06158E+03  1.036E+00  6.145E+00  1.844E-02  1.518E+00
   1    5   10     4     1    1.0000E+01  9.0919E-02   9.9091E+00  0.000E+00  0.000E+00  0.000E+00  1.07836E+03  6.368E-01  1.000E+01  2.500E-02  1.212E+00
   1    5    9     4     2    9.9091E+00  1.8158E-01   9.7275E+00  0.000E+00  0.000E+00  0.000E+00  1.07154E+03  6.315E-01  1.000E+01  5.000E-02  1.211E+00
   1    6    8     4     3    9.7275E+00  1.2689E-01   9.6006E+00  0.000E+00  0.000E+00  0.000E+00  1.06381E+03  6.256E-01  1.000E+01  3.500E-02  1.209E+00
   1    6    8     5     1    1.0432E+01  2.2686E-01   1.0205E+01  0.000E+00  0.000E+00  0.000E+00  1.05868E+03  6.790E-01  1.542E+01  6.166E-02  1.226E+00
   1    7    7     5     2    1.0205E+01  2.7894E-01   9.9265E+00  0.000E+00  0.000E+00  0.000E+00  1.05417E+03  6.732E-01  1.519E+01  7.594E-02  1.224E+00
   1    8    7     5     3    9.9265E+00  1.9221E-01   9.7343E+00  0.000E+00  0.000E+00  0.000E+00  1.04992E+03  6.676E-01  1.497E+01  5.241E-02  1.223E+00
   1    8    6     5     4    9.7343E+00  1.3577E-01   9.5985E+00  0.000E+00  0.000E+00  0.000E+00  1.04691E+03  6.637E-01  1.482E+01  3.706E-02  1.221E+00
   1    9    6     6     1    2.1690E+01  2.4712E-01   2.1442E+01  0.000E+00  0.000E+00  0.000E+00  1.04385E+03  1.119E+00  1.200E+01  6.000E-02  1.373E+00
   1   10    7     6     2    2.1442E+01  2.4666E-01   2.1196E+01  0.000E+00  0.000E+00  0.000E+00  1.03929E+03  1.111E+00  1.200E+01  6.000E-02  1.370E+00
   1   11    7     6     3    2.1196E+01  2.4619E-01   2.0950E+01  0.000E+00  0.000E+00  0.000E+00  1.03474E+03  1.103E+00  1.200E+01  6.000E-02  1.368E+00
   1   12    7     6     4    2.0950E+01  2.4573E-01   2.0704E+01  0.000E+00  0.000E+00  0.000E+00  1.03019E+03  1.096E+00  1.200E+01  6.000E-02  1.365E+00
   1   13    7     6     5    2.0704E+01  3.4249E-03   2.0700E+01  0.000E+00  0.000E+00  0.000E+00  1.02700E+03  1.092E+00  1.200E+01  2.400E-02  4.757E-02
   1   14    9     7     1    1.5000E+02  1.3679E+00   1.4863E+02  0.000E+00  0.000E+00  0.000E+00  1.03987E+03  2.288E+00  5.529E+01  5.593E-01  8.152E-01
   1   13    8     7     2    1.4863E+02  1.9152E+00   1.4672E+02  0.000E+00  0.000E+00  0.000E+00  1.03478E+03  2.279E+00  5.526E+01  6.148E-01  1.038E+00
   1   13    7     7     3    1.4672E+02  1.5808E+00   1.4514E+02  0.000E+00  0.000E+00  0.000E+00  1.02969E+03  2.270E+00  5.521E+01  5.584E-01  9.437E-01
   1   13    6     8     1    1.6584E+02  9.9097E-01   1.6485E+02  0.000E+00  0.000E+00  0.000E+00  1.02480E+03  2.922E+00  4.237E+01  4.317E-01  7.651E-01
   1   13    5     8     2    1.6485E+02  2.3076E-01   1.6461E+02  0.000E+00  0.000E+00  0.000E+00  1.01854E+03  2.918E+00  4.231E+01  4.311E-01  1.784E-01
   1   13    4     8     3    1.6461E+02 -2.2209E+00   1.6684E+02  0.000E+00  0.000E+00  0.000E+00  1.01230E+03  2.924E+00  4.240E+01  4.321E+00 -1.713E-01
   1   13    3     8     4    1.6684E+02 -3.5217E+00   1.7036E+02  0.000E+00  0.000E+00  0.000E+00  1.00607E+03  2.943E+00  4.268E+01  4.349E+00 -2.699E-01
   1   13    2     8     5    1.7036E+02 -2.5147E+00   1.7287E+02  0.000E+00  0.000E+00  0.000E+00  9.99838E+02  2.963E+00  4.296E+01  4.378E+00 -1.915E-01
   1   13    1     8     6    1.7287E+02 -1.9765E+00   1.7485E+02  0.000E+00  0.000E+00  0.000E+00  9.94852E+02  2.977E+00  4.317E+01  2.640E+00 -2.496E-01
   1    8    6     9     1    1.4297E+01  0.0000E+00   1.4297E+01  0.000E+00  0.000E+00  0.000E+00  1.08155E+03  2.804E+00  4.000E+00  0.000E+00  1.935E+00
   1    8    5     9     2    1.4297E+01  0.0000E+00   1.4297E+01  0.000E+00  0.000E+00  0.000E+00  1.08105E+03  2.804E+00  4.000E+00  0.000E+00  1.935E+00



 UBDSV3 SAVING "           GW ET" ON UNIT  61 AT TIME STEP 15, STRESS PERIOD   7
 UBDSV3 SAVING "    UZF RECHARGE" ON UNIT  61 AT TIME STEP 15, STRESS PERIOD   7
 UBDSV3 SAVING " SURFACE LEAKAGE" ON UNIT  61 AT TIME STEP 15, STRESS PERIOD   7
 UBDSV3 SAVING "       HORT+DUNN" ON UNIT  61 AT TIME STEP 15, STRESS PERIOD   7
 UBDSV3 SAVING "  STORAGE CHANGE" ON UNIT  61 AT TIME STEP 15, STRESS PERIOD   7


UNSATURATED ZONE PACKAGE VOLUMETRIC BUDGET FOR  TIME STEP    15 STRESS PERIOD    7
  ------------------------------------------------------------------------------



     CUMULATIVE VOLUMES      L**3       RATES FOR THIS TIME STEP      L**3/T
     ------------------                 ------------------------

           IN:                                      IN:
           ---                                      ---
        INFILTRATION =   121301832.8381          INFILTRATION =          18.7049

          OUT:                                     OUT:
          ----                                     ----
              UZF ET =   101323632.7168                UZF ET =          26.5788
        UZF RECHARGE =       73224.0000          UZF RECHARGE =       0.0000E+00

            IN - OUT =    19904976.1213              IN - OUT =          -7.8739

          STORAGE:                                 STORAGE:
          --------                                 --------
      STORAGE CHANGE =    19904975.1573        STORAGE CHANGE =          -7.8739

 PERCENT DISCREPANCY IS DIFFERENCE BETWEEN IN-OUT MINUS CHANGE IN STORAGE
 DIVIDED BY THE AVERAGE OF IN AND OUT TIMES 100

 PERCENT DISCREPANCY =           0.00     PERCENT DISCREPANCY =           0.00






 

            AG WELLS      PERIOD    7   STEP  15
 AG WELL      1   LAYER   1   ROW     6   COL     4   RATE   -6.287257E-03
 AG WELL      2   LAYER   1   ROW     6   COL     5   RATE   -6.287257E-03
 AG WELL      3   LAYER   1   ROW     7   COL     4   RATE   -6.287257E-03
 AG WELL      4   LAYER   1   ROW     7   COL     5   RATE   -6.287257E-03
 AG WELL      5   LAYER   1   ROW     8   COL     4   RATE   -6.287257E-03
 AG WELL      6   LAYER   1   ROW     8   COL     5   RATE   -6.287257E-03
 
 

   DIVERSION SEGMENTS     PERIOD    7   STEP  15
 SEGMENT      9   RATE     14.2971    
 
 

        SW IRRIGATION     PERIOD    7   STEP  15
 SEGMENT      9   ROW     6   COL     4   RATE     2.37661    
 SEGMENT      9   ROW     6   COL     5   RATE     2.37661    
 SEGMENT      9   ROW     7   COL     4   RATE     2.37661    
 SEGMENT      9   ROW     7   COL     5   RATE     2.37661    
 SEGMENT      9   ROW     8   COL     4   RATE     2.37661    
 SEGMENT      9   ROW     8   COL     5   RATE     2.37661    
 
 

        GW IRRIGATION     PERIOD    7   STEP  15
 AG WELL      1   ROW     6   COL     4   RATE    6.287257E-03
 AG WELL      2   ROW     6   COL     5   RATE    6.287257E-03
 AG WELL      3   ROW     7   COL     4   RATE    6.287257E-03
 AG WELL      4   ROW     7   COL     5   RATE    6.287257E-03
 AG WELL      5   ROW     8   COL     4   RATE    6.287257E-03
 AG WELL      6   ROW     8   COL     5   RATE    6.287257E-03
 
1
  VOLUMETRIC BUDGET FOR AGRICULTURAL FIELDS AT  END OF TIME STEP   15, STRESS PERIOD   7
  ------------------------------------------------------------------------------

     CUMULATIVE VOLUMES      L**3       RATES FOR THIS TIME STEP      L**3/T
     ------------------                 ------------------------

           IN:                                      IN:
           ---                                      ---
               AG WELLS  =      190797.5000                 AG WELLS  =       3.7724E-02
      DIVERSION SEGMENTS =    57325724.0000        DIVERSION SEGMENTS =          14.2971
           GW IRRIGATION =           0.0000             GW IRRIGATION =           0.0000
           SW IRRIGATION =           0.0000             SW IRRIGATION =           0.0000
        SYSTEM LOSSES GW =           0.0000          SYSTEM LOSSES GW =           0.0000
        SYSTEM LOSSES SW =           0.0000          SYSTEM LOSSES SW =           0.0000

                TOTAL IN =    57516520.0000                  TOTAL IN =          14.3348

          OUT:                                     OUT:
          ----                                     ----
               AG WELLS  =           0.0000                 AG WELLS  =           0.0000
      DIVERSION SEGMENTS =           0.0000        DIVERSION SEGMENTS =           0.0000
           GW IRRIGATION =      190797.5000             GW IRRIGATION =       3.7724E-02
           SW IRRIGATION =    57326876.0000             SW IRRIGATION =          14.2974
        SYSTEM LOSSES GW =           0.0000          SYSTEM LOSSES GW =           0.0000
        SYSTEM LOSSES SW =           0.0000          SYSTEM LOSSES SW =           0.0000

               TOTAL OUT =    57517672.0000                 TOTAL OUT =          14.3351

                IN - OUT =       -1152.0000                  IN - OUT =      -2.8515E-04

     PERCENT DISCREPANCY =          -0.00         PERCENT DISCREPANCY =          -0.00



1
  VOLUMETRIC BUDGET FOR ENTIRE MODEL AT END OF TIME STEP   15, STRESS PERIOD   7
  ------------------------------------------------------------------------------

     CUMULATIVE VOLUMES      L**3       RATES FOR THIS TIME STEP      L**3/T
     ------------------                 ------------------------

           IN:                                      IN:
           ---                                      ---
             STORAGE     =     9859505.0000               STORAGE     =           0.3970
       CONSTANT HEAD     =           0.0000         CONSTANT HEAD     =           0.0000
     HEAD DEP BOUNDS     =     4188817.7500       HEAD DEP BOUNDS     =           0.2879
      STREAM LEAKAGE     =   172129488.0000        STREAM LEAKAGE     =          12.2131
        UZF RECHARGE     =       73223.9531          UZF RECHARGE     =           0.0000
               GW ET     =           0.0000                 GW ET     =           0.0000
     SURFACE LEAKAGE     =           0.0000       SURFACE LEAKAGE     =           0.0000
           AG WELLS      =           0.0000             AG WELLS      =           0.0000

                TOTAL IN =   186251024.0000                  TOTAL IN =          12.8981

          OUT:                                     OUT:
          ----                                     ----
             STORAGE     =    32734712.0000               STORAGE     =           2.3372
       CONSTANT HEAD     =           0.0000         CONSTANT HEAD     =           0.0000
     HEAD DEP BOUNDS     =     4199044.0000       HEAD DEP BOUNDS     =           0.2888
      STREAM LEAKAGE     =   149129712.0000        STREAM LEAKAGE     =          10.2338
        UZF RECHARGE     =           0.0000          UZF RECHARGE     =           0.0000
               GW ET     =           0.0000                 GW ET     =           0.0000
     SURFACE LEAKAGE     =           0.0000       SURFACE LEAKAGE     =           0.0000
           AG WELLS      =      190797.5000             AG WELLS      =       3.7724E-02

               TOTAL OUT =   186254272.0000                 TOTAL OUT =          12.8976

                IN - OUT =       -3248.0000                  IN - OUT =       4.6253E-04

     PERCENT DISCREPANCY =          -0.00         PERCENT DISCREPANCY =           0.00






         TIME SUMMARY AT END OF TIME STEP   15 IN STRESS PERIOD    7
                    SECONDS     MINUTES      HOURS       DAYS        YEARS
                    -----------------------------------------------------------
   TIME STEP LENGTH  87667.      1461.1      24.352      1.0147     2.77799E-03
 STRESS PERIOD TIME 1.31500E+06  21917.      365.28      15.220     4.16698E-02
         TOTAL TIME 1.45514E+07 2.42524E+05  4042.1      168.42     0.46111    
1
 
 SOLVING FOR HEAD 
                                                   Max.-Head-Change                         Max.-Flux-Residual
  Residual-Control   Outer-Iter.   Inner-Iter.     Column Row Layer    Maximum-Head-Change  Column Row Layer    Maximum-Flux-Residual          L2-NORM 
          0                 1           2             4   13     1       0.6910417325E-02       4   13    1         0.3972434011E+00      0.7685366848E+00
          0                 2           2             4    7     1      -0.3800096850E-01       5    6    1        -0.2043005182E+01      0.5030893438E+01
          0                 3           2             4    7     1       0.3949331843E-01       5    6    1         0.2180464843E+01      0.5358810977E+01
          0                 4           2             4    7     1      -0.1571750842E-02       4    6    1        -0.9027845726E-01      0.2259120555E+00
          0                 5           1             7   13     1       0.5632290033E-04       7   13    1         0.3227417600E-02      0.4432912359E-02

    ------------------------------------------------
       NWT REQUIRED            5 OUTER ITERATIONS 
       AND A TOTAL OF          9 INNER ITERATIONS.
    ------------------------------------------------

 NO OUTPUT CONTROL FOR STRESS PERIOD    7   TIME STEP   16
 
 SOLVING FOR HEAD 
                                                   Max.-Head-Change                         Max.-Flux-Residual
  Residual-Control   Outer-Iter.   Inner-Iter.     Column Row Layer    Maximum-Head-Change  Column Row Layer    Maximum-Flux-Residual          L2-NORM 
          0                 1           2             4   13     1       0.7120349273E-02       4   13    1         0.4093303188E+00      0.7978924512E+00
          0                 2           2             4    7     1      -0.3831042111E-01       5    6    1        -0.2059577629E+01      0.5073363040E+01
          0                 3           2             4    7     1       0.3981522779E-01       5    6    1         0.2198233147E+01      0.5402529687E+01
          0                 4           2             4    7     1      -0.1584564597E-02       4    6    1        -0.9102407621E-01      0.2281613474E+00
          0                 5           1             7   13     1       0.5907081698E-04       7   13    1         0.3384771566E-02      0.4566505033E-02

    ------------------------------------------------
       NWT REQUIRED            5 OUTER ITERATIONS 
       AND A TOTAL OF          9 INNER ITERATIONS.
    ------------------------------------------------

 NO OUTPUT CONTROL FOR STRESS PERIOD    7   TIME STEP   17
 
 SOLVING FOR HEAD 
                                                   Max.-Head-Change                         Max.-Flux-Residual
  Residual-Control   Outer-Iter.   Inner-Iter.     Column Row Layer    Maximum-Head-Change  Column Row Layer    Maximum-Flux-Residual          L2-NORM 
          0                 1           2             4   13     1       0.7361426063E-02       4   13    1         0.4232044855E+00      0.8166832790E+00
          0                 2           2             4    7     1      -0.3499115687E-01       5    6    1        -0.1881268245E+01      0.4635111384E+01
          0                 3           2             4    7     1       0.3636001631E-01       5    6    1         0.2007476089E+01      0.4933826897E+01
          0                 4           2             4    7     1      -0.1447078393E-02       4    6    1        -0.8324073292E-01      0.2058217312E+00
          0                 5           1             4    7     1       0.1784306880E-04       4    6    1         0.1055113283E-02      0.2810480058E-02

    ------------------------------------------------
       NWT REQUIRED            5 OUTER ITERATIONS 
       AND A TOTAL OF          9 INNER ITERATIONS.
    ------------------------------------------------

 NO OUTPUT CONTROL FOR STRESS PERIOD    7   TIME STEP   18
 
 SOLVING FOR HEAD 
                                                   Max.-Head-Change                         Max.-Flux-Residual
  Residual-Control   Outer-Iter.   Inner-Iter.     Column Row Layer    Maximum-Head-Change  Column Row Layer    Maximum-Flux-Residual          L2-NORM 
          0                 1           2             4   13     1       0.7501754813E-02       4   13    1         0.4312623332E+00      0.8286014128E+00
          0                 2           2             4    7     1      -0.3526861657E-01       5    6    1        -0.1896127837E+01      0.4671889529E+01
          0                 3           2             4    7     1       0.3664865529E-01       5    6    1         0.2023407999E+01      0.4972999318E+01
          0                 4           2             4    7     1      -0.1458568132E-02       4    6    1        -0.8391086411E-01      0.2076434566E+00
          0                 5           1             7   13     1       0.3853020655E-04       7   13    1         0.2208464412E-02      0.3576114804E-02

    ------------------------------------------------
       NWT REQUIRED            5 OUTER ITERATIONS 
       AND A TOTAL OF          9 INNER ITERATIONS.
    ------------------------------------------------

 NO OUTPUT CONTROL FOR STRESS PERIOD    7   TIME STEP   19
 
 SOLVING FOR HEAD 
                                                   Max.-Head-Change                         Max.-Flux-Residual
  Residual-Control   Outer-Iter.   Inner-Iter.     Column Row Layer    Maximum-Head-Change  Column Row Layer    Maximum-Flux-Residual          L2-NORM 
          0                 1           2             4   13     1       0.7635861622E-02       4   13    1         0.4389617505E+00      0.8401335443E+00
          0                 2           2             4    7     1      -0.3529590681E-01       5    6    1        -0.1897554147E+01      0.4675619125E+01
          0                 3           2             4    7     1       0.3667690631E-01       5    6    1         0.2024964697E+01      0.4976846860E+01
          0                 4           2             4    7     1      -0.1459696440E-02       4    6    1        -0.8399287744E-01      0.2078213707E+00
          0                 5           1             7   13     1       0.3863929106E-04       7   13    1         0.2214600817E-02      0.3580967165E-02

    ------------------------------------------------
       NWT REQUIRED            5 OUTER ITERATIONS 
       AND A TOTAL OF          9 INNER ITERATIONS.
    ------------------------------------------------

 NO OUTPUT CONTROL FOR STRESS PERIOD    7   TIME STEP   20
 
 SOLVING FOR HEAD 
                                                   Max.-Head-Change                         Max.-Flux-Residual
  Residual-Control   Outer-Iter.   Inner-Iter.     Column Row Layer    Maximum-Head-Change  Column Row Layer    Maximum-Flux-Residual          L2-NORM 
          0                 1           2             4   13     1       0.7758318456E-02       4   13    1         0.4459894155E+00      0.8508672529E+00
          0                 2           2             4    7     1      -0.3535353686E-01       5    6    1        -0.1900610558E+01      0.4683345750E+01
          0                 3           2             4    7     1       0.3673675163E-01       5    6    1         0.2028265688E+01      0.4984980214E+01
          0                 4           2             4    7     1      -0.1462081917E-02       4    6    1        -0.8414607249E-01      0.2082001435E+00
          0                 5           1             7   13     1       0.3894461876E-04       7   13    1         0.2232089301E-02      0.3595859571E-02

    ------------------------------------------------
       NWT REQUIRED            5 OUTER ITERATIONS 
       AND A TOTAL OF          9 INNER ITERATIONS.
    ------------------------------------------------

 NO OUTPUT CONTROL FOR STRESS PERIOD    7   TIME STEP   21
 
 SOLVING FOR HEAD 
                                                   Max.-Head-Change                         Max.-Flux-Residual
  Residual-Control   Outer-Iter.   Inner-Iter.     Column Row Layer    Maximum-Head-Change  Column Row Layer    Maximum-Flux-Residual          L2-NORM 
          0                 1           2             4   13     1       0.7871065857E-02       4   13    1         0.4524575844E+00      0.8609137442E+00
          0                 2           2             4    7     1      -0.3529683905E-01       5    6    1        -0.1897530740E+01      0.4675962718E+01
          0                 3           2             4    7     1       0.3667732435E-01       5    6    1         0.2024997748E+01      0.4976965027E+01
          0                 4           2             4    7     1      -0.1459447357E-02       5    6    1        -0.8282290300E-01      0.2073367986E+00
          0                 5           1             7   13     1       0.3850932424E-04       7   13    1         0.2207157982E-02      0.3572582588E-02

    ------------------------------------------------
       NWT REQUIRED            5 OUTER ITERATIONS 
       AND A TOTAL OF          9 INNER ITERATIONS.
    ------------------------------------------------

 NO OUTPUT CONTROL FOR STRESS PERIOD    7   TIME STEP   22
 
 SOLVING FOR HEAD 
                                                   Max.-Head-Change                         Max.-Flux-Residual
  Residual-Control   Outer-Iter.   Inner-Iter.     Column Row Layer    Maximum-Head-Change  Column Row Layer    Maximum-Flux-Residual          L2-NORM 
          0                 1           2             4   13     1       0.7972330562E-02       4   13    1         0.4582637968E+00      0.8701324710E+00
          0                 2           2             4    7     1      -0.3536819709E-01       5    6    1        -0.1901330235E+01      0.4685487224E+01
          0                 3           2             4    7     1       0.3675147924E-01       5    6    1         0.2029089376E+01      0.4987032994E+01
          0                 4           2             4    7     1      -0.1462398140E-02       5    6    1        -0.8299025235E-01      0.2077985993E+00
          0                 5           1             7   13     1       0.3890766296E-04       7   13    1         0.2229973448E-02      0.3591959580E-02

    ------------------------------------------------
       NWT REQUIRED            5 OUTER ITERATIONS 
       AND A TOTAL OF          9 INNER ITERATIONS.
    ------------------------------------------------

 NO OUTPUT CONTROL FOR STRESS PERIOD    7   TIME STEP   23
 
 SOLVING FOR HEAD 
                                                   Max.-Head-Change                         Max.-Flux-Residual
  Residual-Control   Outer-Iter.   Inner-Iter.     Column Row Layer    Maximum-Head-Change  Column Row Layer    Maximum-Flux-Residual          L2-NORM 
          0                 1           2             4   13     1       0.8066172135E-02       4   13    1         0.4636427127E+00      0.8787959724E+00
          0                 2           2             4    7     1      -0.3540015997E-01       5    6    1        -0.1903014225E+01      0.4689799862E+01
          0                 3           2             4    7     1       0.3678463913E-01       5    6    1         0.2030917789E+01      0.4991538311E+01
          0                 4           2             4    7     1      -0.1463717643E-02       5    6    1        -0.8306503522E-01      0.2080003925E+00
          0                 5           1             7   13     1       0.3904809827E-04       7   13    1         0.2238016717E-02      0.3598524876E-02

    ------------------------------------------------
       NWT REQUIRED            5 OUTER ITERATIONS 
       AND A TOTAL OF          9 INNER ITERATIONS.
    ------------------------------------------------

 NO OUTPUT CONTROL FOR STRESS PERIOD    7   TIME STEP   24
 
 SOLVING FOR HEAD 
                                                   Max.-Head-Change                         Max.-Flux-Residual
  Residual-Control   Outer-Iter.   Inner-Iter.     Column Row Layer    Maximum-Head-Change  Column Row Layer    Maximum-Flux-Residual          L2-NORM 
          0                 1           2             4   13     1       0.8152457539E-02       4   13    1         0.4685864638E+00      0.8868820491E+00
          0                 2           2             4    7     1      -0.3543714414E-01       5    6    1        -0.1904971342E+01      0.4694770685E+01
          0                 3           2             4    7     1       0.3682303606E-01       5    6    1         0.2033035568E+01      0.4996754143E+01
          0                 4           2             4    7     1      -0.1465245539E-02       5    6    1        -0.8315165329E-01      0.2082358470E+00
          0                 5           1             7   13     1       0.3922357347E-04       7   13    1         0.2248068409E-02      0.3606954447E-02

    ------------------------------------------------
       NWT REQUIRED            5 OUTER ITERATIONS 
       AND A TOTAL OF          9 INNER ITERATIONS.
    ------------------------------------------------

 NO OUTPUT CONTROL FOR STRESS PERIOD    7   TIME STEP   25
 
 SOLVING FOR HEAD 
                                                   Max.-Head-Change                         Max.-Flux-Residual
  Residual-Control   Outer-Iter.   Inner-Iter.     Column Row Layer    Maximum-Head-Change  Column Row Layer    Maximum-Flux-Residual          L2-NORM 
          0                 1           2             4   13     1       0.8231835689E-02       4   13    1         0.4731326261E+00      0.8944326202E+00
          0                 2           2             4    7     1      -0.3547130115E-01       5    6    1        -0.1906776621E+01      0.4699360979E+01
          0                 3           2             4    7     1       0.3685850032E-01       5    6    1         0.2034991442E+01      0.5001571337E+01
          0                 4           2             4    7     1      -0.1466656740E-02       5    6    1        -0.8323164940E-01      0.2084527369E+00
          0                 5           1             7   13     1       0.3938002499E-04       7   13    1         0.2257028938E-02      0.3614807373E-02

    ------------------------------------------------
       NWT REQUIRED            5 OUTER ITERATIONS 
       AND A TOTAL OF          9 INNER ITERATIONS.
    ------------------------------------------------

 NO OUTPUT CONTROL FOR STRESS PERIOD    7   TIME STEP   26
 
 SOLVING FOR HEAD 
                                                   Max.-Head-Change                         Max.-Flux-Residual
  Residual-Control   Outer-Iter.   Inner-Iter.     Column Row Layer    Maximum-Head-Change  Column Row Layer    Maximum-Flux-Residual          L2-NORM 
          0                 1           2             4   13     1       0.8305098438E-02       4   13    1         0.4773269520E+00      0.9014944649E+00
          0                 2           2             4    7     1      -0.5799139965E-02       5    6    1        -0.3131716939E+00      0.7901636504E+00
          0                 3           2             4    7     1      -0.5132269799E-02       4    8    1        -0.2756893768E+00      0.6782147238E+00
          0                 4           2             4    7     1       0.5847525905E-02       4    8    1         0.3228289273E+00      0.8032487737E+00
          0                 5           2             4    7     1       0.2591710788E-02       5    6    1         0.1430798688E+00      0.3560500054E+00
          0                 6           2             4    7     1      -0.1406530373E-02       5    6    1        -0.7981414593E-01      0.1978780606E+00
          0                 7           2             4    7     1      -0.2426014214E-02       4    8    1        -0.1376637966E+00      0.3409393805E+00
          0                 8           2             4    7     1       0.4489559667E-02       5    6    1         0.2618388323E+00      0.6465729845E+00
          0                 9           2             4    7     1       0.1279951548E-02       5    6    1         0.7464824111E-01      0.1837130214E+00
          0                10           2             4    7     1       0.3458131644E-03       5    6    1         0.2016801369E-01      0.4968273415E-01
          0                11           1             4    7     1       0.3869808413E-04       5    7    1         0.2256870594E-02      0.5753770406E-02

    ------------------------------------------------
       NWT REQUIRED           11 OUTER ITERATIONS 
       AND A TOTAL OF         21 INNER ITERATIONS.
    ------------------------------------------------

 NO OUTPUT CONTROL FOR STRESS PERIOD    7   TIME STEP   27
 
 SOLVING FOR HEAD 
                                                   Max.-Head-Change                         Max.-Flux-Residual
  Residual-Control   Outer-Iter.   Inner-Iter.     Column Row Layer    Maximum-Head-Change  Column Row Layer    Maximum-Flux-Residual          L2-NORM 
          0                 1           2             4   13     1       0.8102081378E-02       4   13    1         0.4655679076E+00      0.8769139419E+00
          0                 2           2             4    7     1      -0.4212780666E-01       5    6    1        -0.2264234057E+01      0.5577371919E+01
          0                 3           2             4    7     1       0.4161426537E-01       5    6    1         0.2297526949E+01      0.5646338356E+01
          0                 4           2             4    7     1      -0.1656179841E-02       4    6    1        -0.9520706782E-01      0.2414950076E+00
          0                 5           1             7   13     1       0.7701997601E-04       7   13    1         0.4412625457E-02      0.5458103395E-02

    ------------------------------------------------
       NWT REQUIRED            5 OUTER ITERATIONS 
       AND A TOTAL OF          9 INNER ITERATIONS.
    ------------------------------------------------

 NO OUTPUT CONTROL FOR STRESS PERIOD    7   TIME STEP   28
 
 SOLVING FOR HEAD 
                                                   Max.-Head-Change                         Max.-Flux-Residual
  Residual-Control   Outer-Iter.   Inner-Iter.     Column Row Layer    Maximum-Head-Change  Column Row Layer    Maximum-Flux-Residual          L2-NORM 
          0                 1           2             4   13     1       0.8275925162E-02       4   13    1         0.4755834157E+00      0.9026051362E+00
          0                 2           2             4    7     1      -0.3430013566E-01       5    6    1        -0.1844082181E+01      0.4545087067E+01
          0                 3           2             4    7     1       0.3563787208E-01       5    6    1         0.1967617790E+01      0.4835990045E+01
          0                 4           2             4    7     1      -0.1418085332E-02       5    6    1        -0.8047603823E-01      0.2007790972E+00
          0                 5           1             4    7     1       0.1748557255E-04       5    6    1         0.1019878879E-02      0.2744429864E-02

    ------------------------------------------------
       NWT REQUIRED            5 OUTER ITERATIONS 
       AND A TOTAL OF          9 INNER ITERATIONS.
    ------------------------------------------------

 NO OUTPUT CONTROL FOR STRESS PERIOD    7   TIME STEP   29
 
 SOLVING FOR HEAD 
                                                   Max.-Head-Change                         Max.-Flux-Residual
  Residual-Control   Outer-Iter.   Inner-Iter.     Column Row Layer    Maximum-Head-Change  Column Row Layer    Maximum-Flux-Residual          L2-NORM 
          0                 1           2             4   13     1       0.7422330029E-02       4   13    1         0.4264481988E+00      0.8188891709E+00
          0                 2           2             4    7     1      -0.3489828261E-01       5    6    1        -0.1876160130E+01      0.4622653358E+01
          0                 3           2             4    7     1       0.3626034485E-01       5    6    1         0.2001979769E+01      0.4920368914E+01
          0                 4           2             4    7     1      -0.1442854848E-02       5    6    1        -0.8188145769E-01      0.2082169923E+00
          0                 5           1             7   13     1       0.5791400037E-04       7   13    1         0.3318341935E-02      0.4336029208E-02

    ------------------------------------------------
       NWT REQUIRED            5 OUTER ITERATIONS 
       AND A TOTAL OF          9 INNER ITERATIONS.
    ------------------------------------------------

 NO OUTPUT CONTROL FOR STRESS PERIOD    7   TIME STEP   30



 STREAM LISTING     PERIOD      7   STEP       30

 LAYER ROW COL. STREAM  RCH.  FLOW INTO     FLOW TO   FLOW OUT OF   OVRLND.     DIRECT     STREAM       STREAM     STREAM     STREAM   STREAMBED  STREAMBED
                SEG.NO.  NO.  STRM. RCH.    AQUIFER    STRM. RCH.    RUNOFF     PRECIP       ET          HEAD       DEPTH      WIDTH   CONDCTNC.   GRADIENT

   1    1    1     1     1    2.8852E+01  2.6229E-01   2.8590E+01  0.000E+00  0.000E+00  0.000E+00  1.09428E+03  1.233E+00  1.377E+01  6.197E-02  1.411E+00
   1    2    2     1     2    2.8590E+01  4.0577E-01   2.8184E+01  0.000E+00  0.000E+00  0.000E+00  1.08929E+03  1.228E+00  1.371E+01  9.596E-02  1.409E+00
   1    3    3     1     3    2.8184E+01  3.4562E-01   2.7838E+01  0.000E+00  0.000E+00  0.000E+00  1.08364E+03  1.223E+00  1.364E+01  8.184E-02  1.408E+00
   1    3    4     1     4    2.7838E+01  3.1791E-01   2.7521E+01  0.000E+00  0.000E+00  0.000E+00  1.07863E+03  1.219E+00  1.358E+01  7.536E-02  1.406E+00
   1    4    5     2     1    2.5521E+01  3.2899E-01   2.5192E+01  0.000E+00  0.000E+00  0.000E+00  1.07315E+03  1.218E+00  1.200E+01  7.800E-02  1.406E+00
   1    5    6     2     2    2.5192E+01  2.5257E-01   2.4939E+01  0.000E+00  0.000E+00  0.000E+00  1.06772E+03  1.209E+00  1.200E+01  6.000E-02  1.403E+00
   1    6    6     2     3    2.4939E+01  2.5213E-01   2.4687E+01  0.000E+00  0.000E+00  0.000E+00  1.06299E+03  1.202E+00  1.200E+01  6.000E-02  1.401E+00
   1    7    6     2     4    2.4687E+01  2.5169E-01   2.4435E+01  0.000E+00  0.000E+00  0.000E+00  1.05827E+03  1.195E+00  1.200E+01  6.000E-02  1.398E+00
   1    8    6     2     5    2.4435E+01  2.5125E-01   2.4184E+01  0.000E+00  0.000E+00  0.000E+00  1.05355E+03  1.187E+00  1.200E+01  6.000E-02  1.396E+00
   1    3    5     3     1    2.0000E+00  2.8252E-01   1.7175E+00  0.000E+00  0.000E+00  0.000E+00  1.07555E+03  1.909E+00  9.636E+00  7.227E-02  1.955E+00
   1    3    6     3     2    1.7175E+00  2.4905E-01   1.4684E+00  0.000E+00  0.000E+00  0.000E+00  1.07264E+03  1.727E+00  8.909E+00  6.682E-02  1.864E+00
   1    3    7     3     3    1.4684E+00  1.9718E-01   1.2712E+00  0.000E+00  0.000E+00  0.000E+00  1.06987E+03  1.555E+00  8.218E+00  5.547E-02  1.777E+00
   1    4    8     3     4    1.2712E+00  2.2567E-01   1.0456E+00  0.000E+00  0.000E+00  0.000E+00  1.06682E+03  1.364E+00  7.455E+00  6.709E-02  1.682E+00
   1    5    8     3     5    1.0456E+00  1.5790E-01   8.8768E-01  0.000E+00  0.000E+00  0.000E+00  1.06362E+03  1.164E+00  6.655E+00  4.991E-02  1.582E+00
   1    6    8     3     6    8.8768E-01  5.5980E-02   8.3170E-01  0.000E+00  0.000E+00  0.000E+00  1.06158E+03  1.036E+00  6.145E+00  1.844E-02  1.518E+00
   1    5   10     4     1    1.0000E+01  9.0919E-02   9.9091E+00  0.000E+00  0.000E+00  0.000E+00  1.07836E+03  6.368E-01  1.000E+01  2.500E-02  1.212E+00
   1    5    9     4     2    9.9091E+00  1.8158E-01   9.7275E+00  0.000E+00  0.000E+00  0.000E+00  1.07154E+03  6.315E-01  1.000E+01  5.000E-02  1.211E+00
   1    6    8     4     3    9.7275E+00  1.2689E-01   9.6006E+00  0.000E+00  0.000E+00  0.000E+00  1.06381E+03  6.256E-01  1.000E+01  3.500E-02  1.209E+00
   1    6    8     5     1    1.0432E+01  2.2686E-01   1.0205E+01  0.000E+00  0.000E+00  0.000E+00  1.05868E+03  6.790E-01  1.542E+01  6.166E-02  1.226E+00
   1    7    7     5     2    1.0205E+01  2.7894E-01   9.9265E+00  0.000E+00  0.000E+00  0.000E+00  1.05417E+03  6.732E-01  1.519E+01  7.594E-02  1.224E+00
   1    8    7     5     3    9.9265E+00  1.9221E-01   9.7343E+00  0.000E+00  0.000E+00  0.000E+00  1.04992E+03  6.676E-01  1.497E+01  5.241E-02  1.223E+00
   1    8    6     5     4    9.7343E+00  1.3577E-01   9.5985E+00  0.000E+00  0.000E+00  0.000E+00  1.04691E+03  6.637E-01  1.482E+01  3.706E-02  1.221E+00
   1    9    6     6     1    1.1335E+01  2.2531E-01   1.1109E+01  0.000E+00  0.000E+00  0.000E+00  1.04348E+03  7.551E-01  1.200E+01  6.000E-02  1.252E+00
   1   10    7     6     2    1.1109E+01  2.2476E-01   1.0885E+01  0.000E+00  0.000E+00  0.000E+00  1.03893E+03  7.460E-01  1.200E+01  6.000E-02  1.249E+00
   1   11    7     6     3    1.0885E+01  2.2421E-01   1.0660E+01  0.000E+00  0.000E+00  0.000E+00  1.03437E+03  7.368E-01  1.200E+01  6.000E-02  1.246E+00
   1   12    7     6     4    1.0660E+01  2.2366E-01   1.0437E+01  0.000E+00  0.000E+00  0.000E+00  1.02982E+03  7.276E-01  1.200E+01  6.000E-02  1.243E+00
   1   13    7     6     5    1.0437E+01 -5.2875E-02   1.0490E+01  0.000E+00  0.000E+00  0.000E+00  1.02663E+03  7.240E-01  1.200E+01  2.400E-01 -7.344E-02
   1   14    9     7     1    1.5000E+02  1.3680E+00   1.4863E+02  0.000E+00  0.000E+00  0.000E+00  1.03987E+03  2.288E+00  5.529E+01  5.593E-01  8.153E-01
   1   13    8     7     2    1.4863E+02  1.9152E+00   1.4672E+02  0.000E+00  0.000E+00  0.000E+00  1.03478E+03  2.279E+00  5.526E+01  6.148E-01  1.038E+00
   1   13    7     7     3    1.4672E+02  1.5833E+00   1.4513E+02  0.000E+00  0.000E+00  0.000E+00  1.02969E+03  2.270E+00  5.521E+01  5.584E-01  9.451E-01
   1   13    6     8     1    1.5562E+02  9.4227E-01   1.5468E+02  0.000E+00  0.000E+00  0.000E+00  1.02473E+03  2.853E+00  4.136E+01  4.215E-01  7.451E-01
   1   13    5     8     2    1.5468E+02  2.0068E-01   1.5448E+02  0.000E+00  0.000E+00  0.000E+00  1.01847E+03  2.849E+00  4.131E+01  4.209E-01  1.589E-01
   1   13    4     8     3    1.5448E+02 -2.3841E+00   1.5686E+02  0.000E+00  0.000E+00  0.000E+00  1.01223E+03  2.856E+00  4.142E+01  4.220E+00 -1.883E-01
   1   13    3     8     4    1.5686E+02 -3.6472E+00   1.6051E+02  0.000E+00  0.000E+00  0.000E+00  1.00600E+03  2.877E+00  4.172E+01  4.251E+00 -2.860E-01
   1   13    2     8     5    1.6051E+02 -2.6443E+00   1.6316E+02  0.000E+00  0.000E+00  0.000E+00  9.99773E+02  2.898E+00  4.202E+01  4.282E+00 -2.058E-01
   1   13    1     8     6    1.6316E+02 -2.0443E+00   1.6520E+02  0.000E+00  0.000E+00  0.000E+00  9.94789E+02  2.914E+00  4.225E+01  2.583E+00 -2.638E-01
   1    8    6     9     1    2.2448E+01  0.0000E+00   2.2448E+01  0.000E+00  0.000E+00  0.000E+00  1.08243E+03  3.681E+00  4.000E+00  0.000E+00  2.227E+00
   1    8    5     9     2    2.2448E+01  0.0000E+00   2.2448E+01  0.000E+00  0.000E+00  0.000E+00  1.08193E+03  3.681E+00  4.000E+00  0.000E+00  2.227E+00





UNSATURATED ZONE PACKAGE VOLUMETRIC BUDGET FOR  TIME STEP    30 STRESS PERIOD    7
  ------------------------------------------------------------------------------



     CUMULATIVE VOLUMES      L**3       RATES FOR THIS TIME STEP      L**3/T
     ------------------                 ------------------------

           IN:                                      IN:
           ---                                      ---
        INFILTRATION =   156863269.4875          INFILTRATION =          26.8557

          OUT:                                     OUT:
          ----                                     ----
              UZF ET =   136324748.3193                UZF ET =          26.6236
        UZF RECHARGE =       73224.0000          UZF RECHARGE =       0.0000E+00

            IN - OUT =    20465297.1682              IN - OUT =           0.2321

          STORAGE:                                 STORAGE:
          --------                                 --------
      STORAGE CHANGE =    20465296.0779        STORAGE CHANGE =           0.2321

 PERCENT DISCREPANCY IS DIFFERENCE BETWEEN IN-OUT MINUS CHANGE IN STORAGE
 DIVIDED BY THE AVERAGE OF IN AND OUT TIMES 100

 PERCENT DISCREPANCY =           0.00     PERCENT DISCREPANCY =           0.00






1
  VOLUMETRIC BUDGET FOR AGRICULTURAL FIELDS AT  END OF TIME STEP   30, STRESS PERIOD   7
  ------------------------------------------------------------------------------

     CUMULATIVE VOLUMES      L**3       RATES FOR THIS TIME STEP      L**3/T
     ------------------                 ------------------------

           IN:                                      IN:
           ---                                      ---
               AG WELLS  =      257194.6094                 AG WELLS  =           0.0000
      DIVERSION SEGMENTS =    87027608.0000        DIVERSION SEGMENTS =          22.4478
           GW IRRIGATION =           0.0000             GW IRRIGATION =           0.0000
           SW IRRIGATION =           0.0000             SW IRRIGATION =           0.0000
        SYSTEM LOSSES GW =           0.0000          SYSTEM LOSSES GW =           0.0000
        SYSTEM LOSSES SW =           0.0000          SYSTEM LOSSES SW =           0.0000

                TOTAL IN =    87284800.0000                  TOTAL IN =          22.4478

          OUT:                                     OUT:
          ----                                     ----
               AG WELLS  =           0.0000                 AG WELLS  =           0.0000
      DIVERSION SEGMENTS =           0.0000        DIVERSION SEGMENTS =           0.0000
           GW IRRIGATION =      257194.6094             GW IRRIGATION =           0.0000
           SW IRRIGATION =    87029344.0000             SW IRRIGATION =          22.4482
        SYSTEM LOSSES GW =           0.0000          SYSTEM LOSSES GW =           0.0000
        SYSTEM LOSSES SW =           0.0000          SYSTEM LOSSES SW =           0.0000

               TOTAL OUT =    87286536.0000                 TOTAL OUT =          22.4482

                IN - OUT =       -1736.0000                  IN - OUT =      -4.4823E-04

     PERCENT DISCREPANCY =          -0.00         PERCENT DISCREPANCY =          -0.00



1
  VOLUMETRIC BUDGET FOR ENTIRE MODEL AT END OF TIME STEP   30, STRESS PERIOD   7
  ------------------------------------------------------------------------------

     CUMULATIVE VOLUMES      L**3       RATES FOR THIS TIME STEP      L**3/T
     ------------------                 ------------------------

           IN:                                      IN:
           ---                                      ---
             STORAGE     =    10958176.0000               STORAGE     =           0.8328
       CONSTANT HEAD     =           0.0000         CONSTANT HEAD     =           0.0000
     HEAD DEP BOUNDS     =     4567467.0000       HEAD DEP BOUNDS     =           0.2880
      STREAM LEAKAGE     =   188001904.0000        STREAM LEAKAGE     =          11.9771
        UZF RECHARGE     =       73223.9531          UZF RECHARGE     =           0.0000
               GW ET     =           0.0000                 GW ET     =           0.0000
     SURFACE LEAKAGE     =           0.0000       SURFACE LEAKAGE     =           0.0000
           AG WELLS      =           0.0000             AG WELLS      =           0.0000

                TOTAL IN =   203600768.0000                  TOTAL IN =          13.0978

          OUT:                                     OUT:
          ----                                     ----
             STORAGE     =    35545152.0000               STORAGE     =           2.0370
       CONSTANT HEAD     =           0.0000         CONSTANT HEAD     =           0.0000
     HEAD DEP BOUNDS     =     4578243.5000       HEAD DEP BOUNDS     =           0.2880
      STREAM LEAKAGE     =   163223344.0000        STREAM LEAKAGE     =          10.7728
        UZF RECHARGE     =           0.0000          UZF RECHARGE     =           0.0000
               GW ET     =           0.0000                 GW ET     =           0.0000
     SURFACE LEAKAGE     =           0.0000       SURFACE LEAKAGE     =           0.0000
           AG WELLS      =      257194.6094             AG WELLS      =           0.0000

               TOTAL OUT =   203603936.0000                 TOTAL OUT =          13.0978

                IN - OUT =       -3168.0000                  IN - OUT =      -1.9073E-06

     PERCENT DISCREPANCY =          -0.00         PERCENT DISCREPANCY =          -0.00






         TIME SUMMARY AT END OF TIME STEP   30 IN STRESS PERIOD    7
                    SECONDS     MINUTES      HOURS       DAYS        YEARS
                    -----------------------------------------------------------
   TIME STEP LENGTH  87667.      1461.1      24.352      1.0147     2.77799E-03
 STRESS PERIOD TIME 2.63000E+06  43833.      730.56      30.440     8.33397E-02
         TOTAL TIME 1.58664E+07 2.64440E+05  4407.3      183.64     0.50278    
1
1
                            STRESS PERIOD NO.    8, LENGTH =   2630000.    
                            -----------------------------------------------

                              NUMBER OF TIME STEPS =    30

                               MULTIPLIER FOR DELT =     1.000

                            INITIAL TIME STEP SIZE =   87666.66    

 REUSING NON-PARAMETER GHB CELLS FROM LAST STRESS PERIOD

      2 GHB CELLS

 REUSING STREAM SEGMENT DATA FROM LAST STRESS PERIOD



            AREAL INFILTRATION RATE
 READING ON UNIT   19 WITH FORMAT: (10F4.0)            

            1           2           3           4           5           6           7           8           9          10
 ........................................................................................................................
   1   1.2000E-09   0.000       0.000       0.000       0.000       0.000       0.000       0.000       0.000       0.000    
   2   2.1000E-09  2.0000E-09  8.0000E-10  8.5000E-09   0.000       0.000       0.000       0.000       0.000       0.000    
   3   5.0000E-10  1.1000E-09  8.8000E-09  5.5000E-09   0.000       0.000       0.000       0.000       0.000       0.000    
   4   8.5000E-09  1.1000E-09  1.1000E-09  1.1000E-09  2.0000E-09   0.000       0.000       0.000       0.000       0.000    
   5   8.5000E-09  1.1000E-09  1.1000E-09  1.1000E-09  1.1000E-09   0.000       0.000       0.000       0.000       0.000    
   6   8.5000E-09  5.2000E-09  2.1000E-09  1.1000E-09  1.5000E-09   0.000       0.000       0.000       0.000       0.000    
   7   8.5000E-09  5.2000E-09  2.1000E-09  1.2000E-09  2.0000E-09   0.000       0.000       0.000       0.000       0.000    
   8   5.0000E-10  5.2000E-09  2.1000E-09  1.2000E-09  5.0000E-09   0.000       0.000       0.000       0.000       0.000    
   9   5.0000E-10  5.2000E-09  2.1000E-09  1.2000E-09  5.0000E-09   0.000       0.000       0.000       0.000       0.000    
  10   5.0000E-10  5.2000E-09  2.1000E-09  1.2000E-09  5.8000E-09   0.000       0.000       0.000       0.000       0.000    
  11   1.0000E-10  1.1000E-09  1.1000E-09  1.2000E-09  5.0000E-09   0.000       0.000       0.000       0.000       0.000    
  12   1.1000E-09  1.1000E-09  1.1000E-09  1.1000E-09  2.0000E-09   0.000       0.000       0.000       0.000       0.000    
  13   1.1000E-09  2.2000E-09  2.2000E-09  2.1000E-09  1.0000E-09   0.000       0.000       0.000       0.000       0.000    
  14   2.0000E-10  5.5000E-09  5.5000E-09  5.2000E-09  1.0000E-09   0.000       0.000       0.000       0.000       0.000    
  15    0.000      8.8000E-09  8.8000E-09   0.000       0.000       0.000       0.000       0.000       0.000       0.000    

                  ET RATE =  4.000000E-07

 USING ET EXTINCTION DEPTH FROM PREVIOUS STRESS PERIOD. CURRENT PERIOD IS:       8

 USING EXTINCTION WATER CONTENT FROM PREVIOUS STRESS PERIOD. CURRENT PERIOD IS:       8

 USING AIR ENTRY PRESSURE FROM PREVIOUS STRESS PERIOD. CURRENT PERIOD IS:       8

 USING ROOT PRESSURE HEAD FROM PREVIOUS STRESS PERIOD. CURRENT PERIOD IS:       8

 USING ROOT ACTIVITY FROM PREVIOUS STRESS PERIOD. CURRENT PERIOD IS:       8

 PROCESSING AG STRESS PERIOD DATA

 READING AG STRESS PERIOD DATA

 READING IRRIGATION SEGMENT

 READING IRRIGATION WELL

 READING SUPPLEMENTAL WELL

 END PROCESSING AG STRESS PERIOD DATA OPTIONS
 
 SOLVING FOR HEAD 
                                                   Max.-Head-Change                         Max.-Flux-Residual
  Residual-Control   Outer-Iter.   Inner-Iter.     Column Row Layer    Maximum-Head-Change  Column Row Layer    Maximum-Flux-Residual          L2-NORM 
          0                 1           2             4   13     1       0.7270208511E-02       4   13    1         0.4176955945E+00      0.8017492577E+00
          0                 2           2             4    7     1      -0.2004526771E+00       5    6    1        -0.1076740846E+02      0.2639031430E+02
          0                 3           2             4    7     1       0.1359441019E-01       5    6    1         0.7537075238E+00      0.1844384207E+01
          0                 4           2             4    7     1      -0.5409354617E-03       5    6    1        -0.3082673571E-01      0.7549431417E-01
          0                 5           1             4    7     1       0.6669967086E-05       5    6    1         0.3906696688E-03      0.9679285649E-03

    ------------------------------------------------
       NWT REQUIRED            5 OUTER ITERATIONS 
       AND A TOTAL OF          9 INNER ITERATIONS.
    ------------------------------------------------

 OUTPUT CONTROL FOR STRESS PERIOD    8   TIME STEP    1
    PRINT BUDGET
    SAVE BUDGET
 UBDSV1 SAVING "         STORAGE" ON UNIT 102 AT TIME STEP  1, STRESS PERIOD   8
 UBDSV2 SAVING "   CONSTANT HEAD" ON UNIT 102 AT TIME STEP  1, STRESS PERIOD   8
 UBDSV1 SAVING "FLOW RIGHT FACE " ON UNIT 102 AT TIME STEP  1, STRESS PERIOD   8
 UBDSV1 SAVING "FLOW FRONT FACE " ON UNIT 102 AT TIME STEP  1, STRESS PERIOD   8

  HEAD DEP BOUNDS   PERIOD    8   STEP     1
 BOUNDARY      1   LAYER   1   ROW    13   COL     1   RATE   -0.287984    
 BOUNDARY      2   LAYER   1   ROW    14   COL     9   RATE    0.287951    



 STREAM LISTING     PERIOD      8   STEP        1

 LAYER ROW COL. STREAM  RCH.  FLOW INTO     FLOW TO   FLOW OUT OF   OVRLND.     DIRECT     STREAM       STREAM     STREAM     STREAM   STREAMBED  STREAMBED
                SEG.NO.  NO.  STRM. RCH.    AQUIFER    STRM. RCH.    RUNOFF     PRECIP       ET          HEAD       DEPTH      WIDTH   CONDCTNC.   GRADIENT

   1    1    1     1     1    2.8125E+01  2.5915E-01   2.7866E+01  0.000E+00  0.000E+00  0.000E+00  1.09427E+03  1.223E+00  1.364E+01  6.137E-02  1.408E+00
   1    2    2     1     2    2.7866E+01  4.0087E-01   2.7465E+01  0.000E+00  0.000E+00  0.000E+00  1.08928E+03  1.218E+00  1.358E+01  9.503E-02  1.406E+00
   1    3    3     1     3    2.7465E+01  3.4143E-01   2.7124E+01  0.000E+00  0.000E+00  0.000E+00  1.08363E+03  1.213E+00  1.351E+01  8.104E-02  1.404E+00
   1    3    4     1     4    2.7124E+01  3.1403E-01   2.6810E+01  0.000E+00  0.000E+00  0.000E+00  1.07862E+03  1.209E+00  1.344E+01  7.461E-02  1.403E+00
   1    4    5     2     1    2.4810E+01  3.2739E-01   2.4482E+01  0.000E+00  0.000E+00  0.000E+00  1.07313E+03  1.197E+00  1.200E+01  7.800E-02  1.399E+00
   1    5    6     2     2    2.4482E+01  2.5133E-01   2.4231E+01  0.000E+00  0.000E+00  0.000E+00  1.06770E+03  1.189E+00  1.200E+01  6.000E-02  1.396E+00
   1    6    6     2     3    2.4231E+01  2.5089E-01   2.3980E+01  0.000E+00  0.000E+00  0.000E+00  1.06297E+03  1.181E+00  1.200E+01  6.000E-02  1.394E+00
   1    7    6     2     4    2.3980E+01  2.5044E-01   2.3730E+01  0.000E+00  0.000E+00  0.000E+00  1.05825E+03  1.174E+00  1.200E+01  6.000E-02  1.391E+00
   1    8    6     2     5    2.3730E+01  2.5000E-01   2.3480E+01  0.000E+00  0.000E+00  0.000E+00  1.05353E+03  1.167E+00  1.200E+01  6.000E-02  1.389E+00
   1    3    5     3     1    2.0000E+00  2.8252E-01   1.7175E+00  0.000E+00  0.000E+00  0.000E+00  1.07555E+03  1.909E+00  9.636E+00  7.227E-02  1.955E+00
   1    3    6     3     2    1.7175E+00  2.4905E-01   1.4684E+00  0.000E+00  0.000E+00  0.000E+00  1.07264E+03  1.727E+00  8.909E+00  6.682E-02  1.864E+00
   1    3    7     3     3    1.4684E+00  1.9718E-01   1.2712E+00  0.000E+00  0.000E+00  0.000E+00  1.06987E+03  1.555E+00  8.218E+00  5.547E-02  1.777E+00
   1    4    8     3     4    1.2712E+00  2.2567E-01   1.0456E+00  0.000E+00  0.000E+00  0.000E+00  1.06682E+03  1.364E+00  7.455E+00  6.709E-02  1.682E+00
   1    5    8     3     5    1.0456E+00  1.5790E-01   8.8768E-01  0.000E+00  0.000E+00  0.000E+00  1.06362E+03  1.164E+00  6.655E+00  4.991E-02  1.582E+00
   1    6    8     3     6    8.8768E-01  5.5980E-02   8.3170E-01  0.000E+00  0.000E+00  0.000E+00  1.06158E+03  1.036E+00  6.145E+00  1.844E-02  1.518E+00
   1    5   10     4     1    1.0000E+01  9.0919E-02   9.9091E+00  0.000E+00  0.000E+00  0.000E+00  1.07836E+03  6.368E-01  1.000E+01  2.500E-02  1.212E+00
   1    5    9     4     2    9.9091E+00  1.8158E-01   9.7275E+00  0.000E+00  0.000E+00  0.000E+00  1.07154E+03  6.315E-01  1.000E+01  5.000E-02  1.211E+00
   1    6    8     4     3    9.7275E+00  1.2689E-01   9.6006E+00  0.000E+00  0.000E+00  0.000E+00  1.06381E+03  6.256E-01  1.000E+01  3.500E-02  1.209E+00
   1    6    8     5     1    1.0432E+01  2.2686E-01   1.0205E+01  0.000E+00  0.000E+00  0.000E+00  1.05868E+03  6.790E-01  1.542E+01  6.166E-02  1.226E+00
   1    7    7     5     2    1.0205E+01  2.7894E-01   9.9265E+00  0.000E+00  0.000E+00  0.000E+00  1.05417E+03  6.732E-01  1.519E+01  7.594E-02  1.224E+00
   1    8    7     5     3    9.9265E+00  1.9221E-01   9.7343E+00  0.000E+00  0.000E+00  0.000E+00  1.04992E+03  6.676E-01  1.497E+01  5.241E-02  1.223E+00
   1    8    6     5     4    9.7343E+00  1.3577E-01   9.5985E+00  0.000E+00  0.000E+00  0.000E+00  1.04691E+03  6.637E-01  1.482E+01  3.706E-02  1.221E+00
   1    9    6     6     1    9.5985E+00  2.2097E-01   9.3776E+00  0.000E+00  0.000E+00  0.000E+00  1.04341E+03  6.828E-01  1.200E+01  6.000E-02  1.228E+00
   1   10    7     6     2    9.3776E+00  2.2039E-01   9.1572E+00  0.000E+00  0.000E+00  0.000E+00  1.03885E+03  6.732E-01  1.200E+01  6.000E-02  1.224E+00
   1   11    7     6     3    9.1572E+00  2.1981E-01   8.9374E+00  0.000E+00  0.000E+00  0.000E+00  1.03430E+03  6.636E-01  1.200E+01  6.000E-02  1.221E+00
   1   12    7     6     4    8.9374E+00  2.1923E-01   8.7181E+00  0.000E+00  0.000E+00  0.000E+00  1.02974E+03  6.539E-01  1.200E+01  6.000E-02  1.218E+00
   1   13    7     6     5    8.7181E+00 -7.0321E-02   8.7885E+00  0.000E+00  0.000E+00  0.000E+00  1.02656E+03  6.505E-01  1.200E+01  2.400E-01 -9.767E-02
   1   14    9     7     1    1.5000E+02  1.3680E+00   1.4863E+02  0.000E+00  0.000E+00  0.000E+00  1.03987E+03  2.288E+00  5.529E+01  5.593E-01  8.153E-01
   1   13    8     7     2    1.4863E+02  1.9152E+00   1.4672E+02  0.000E+00  0.000E+00  0.000E+00  1.03478E+03  2.279E+00  5.526E+01  6.148E-01  1.038E+00
   1   13    7     7     3    1.4672E+02  1.5838E+00   1.4513E+02  0.000E+00  0.000E+00  0.000E+00  1.02969E+03  2.270E+00  5.521E+01  5.584E-01  9.454E-01
   1   13    6     8     1    1.5392E+02  9.3380E-01   1.5299E+02  0.000E+00  0.000E+00  0.000E+00  1.02472E+03  2.841E+00  4.119E+01  4.198E-01  7.415E-01
   1   13    5     8     2    1.5299E+02  1.9528E-01   1.5279E+02  0.000E+00  0.000E+00  0.000E+00  1.01846E+03  2.837E+00  4.114E+01  4.192E-01  1.553E-01
   1   13    4     8     3    1.5279E+02 -2.4150E+00   1.5521E+02  0.000E+00  0.000E+00  0.000E+00  1.01222E+03  2.845E+00  4.125E+01  4.203E+00 -1.915E-01
   1   13    3     8     4    1.5521E+02 -3.6729E+00   1.5888E+02  0.000E+00  0.000E+00  0.000E+00  1.00599E+03  2.866E+00  4.155E+01  4.234E+00 -2.891E-01
   1   13    2     8     5    1.5888E+02 -2.6721E+00   1.6155E+02  0.000E+00  0.000E+00  0.000E+00  9.99762E+02  2.887E+00  4.187E+01  4.266E+00 -2.088E-01
   1   13    1     8     6    1.6155E+02 -2.0599E+00   1.6361E+02  0.000E+00  0.000E+00  0.000E+00  9.94778E+02  2.903E+00  4.210E+01  2.574E+00 -2.668E-01
   1    8    6     9     1    2.3480E+01  0.0000E+00   2.3480E+01  0.000E+00  0.000E+00  0.000E+00  1.08253E+03  3.782E+00  4.000E+00  0.000E+00  2.261E+00
   1    8    5     9     2    2.3480E+01  0.0000E+00   2.3480E+01  0.000E+00  0.000E+00  0.000E+00  1.08203E+03  3.782E+00  4.000E+00  0.000E+00  2.261E+00



 UBDSV3 SAVING "           GW ET" ON UNIT  61 AT TIME STEP  1, STRESS PERIOD   8
 UBDSV3 SAVING "    UZF RECHARGE" ON UNIT  61 AT TIME STEP  1, STRESS PERIOD   8
 UBDSV3 SAVING " SURFACE LEAKAGE" ON UNIT  61 AT TIME STEP  1, STRESS PERIOD   8
 UBDSV3 SAVING "       HORT+DUNN" ON UNIT  61 AT TIME STEP  1, STRESS PERIOD   8
 UBDSV3 SAVING "  STORAGE CHANGE" ON UNIT  61 AT TIME STEP  1, STRESS PERIOD   8


UNSATURATED ZONE PACKAGE VOLUMETRIC BUDGET FOR  TIME STEP     1 STRESS PERIOD    8
  ------------------------------------------------------------------------------



     CUMULATIVE VOLUMES      L**3       RATES FOR THIS TIME STEP      L**3/T
     ------------------                 ------------------------

           IN:                                      IN:
           ---                                      ---
        INFILTRATION =   164968858.3069          INFILTRATION =          92.4592

          OUT:                                     OUT:
          ----                                     ----
              UZF ET =   141944838.8887                UZF ET =          64.1075
        UZF RECHARGE =       73224.0000          UZF RECHARGE =       0.0000E+00

            IN - OUT =    22950795.4182              IN - OUT =          28.3517

          STORAGE:                                 STORAGE:
          --------                                 --------
      STORAGE CHANGE =    22950794.1350        STORAGE CHANGE =          28.3517

 PERCENT DISCREPANCY IS DIFFERENCE BETWEEN IN-OUT MINUS CHANGE IN STORAGE
 DIVIDED BY THE AVERAGE OF IN AND OUT TIMES 100

 PERCENT DISCREPANCY =           0.00     PERCENT DISCREPANCY =           0.00






 

            AG WELLS      PERIOD    8   STEP   1
 AG WELL      1   LAYER   1   ROW     6   COL     4   RATE    -10.7619    
 AG WELL      2   LAYER   1   ROW     6   COL     5   RATE    -10.7619    
 AG WELL      3   LAYER   1   ROW     7   COL     4   RATE    -10.7619    
 AG WELL      4   LAYER   1   ROW     7   COL     5   RATE    -10.7619    
 AG WELL      5   LAYER   1   ROW     8   COL     4   RATE    -10.7619    
 AG WELL      6   LAYER   1   ROW     8   COL     5   RATE    -10.7619    
 
 

   DIVERSION SEGMENTS     PERIOD    8   STEP   1
 SEGMENT      9   RATE     23.4796    
 
 

        SW IRRIGATION     PERIOD    8   STEP   1
 SEGMENT      9   ROW     6   COL     4   RATE     3.91334    
 SEGMENT      9   ROW     6   COL     5   RATE     3.91334    
 SEGMENT      9   ROW     7   COL     4   RATE     3.91334    
 SEGMENT      9   ROW     7   COL     5   RATE     3.91334    
 SEGMENT      9   ROW     8   COL     4   RATE     3.91334    
 SEGMENT      9   ROW     8   COL     5   RATE     3.91334    
 
 

        GW IRRIGATION     PERIOD    8   STEP   1
 AG WELL      1   ROW     6   COL     4   RATE     10.7619    
 AG WELL      2   ROW     6   COL     5   RATE     10.7619    
 AG WELL      3   ROW     7   COL     4   RATE     10.7619    
 AG WELL      4   ROW     7   COL     5   RATE     10.7619    
 AG WELL      5   ROW     8   COL     4   RATE     10.7619    
 AG WELL      6   ROW     8   COL     5   RATE     10.7619    
 
1
  VOLUMETRIC BUDGET FOR AGRICULTURAL FIELDS AT  END OF TIME STEP    1, STRESS PERIOD   8
  ------------------------------------------------------------------------------

     CUMULATIVE VOLUMES      L**3       RATES FOR THIS TIME STEP      L**3/T
     ------------------                 ------------------------

           IN:                                      IN:
           ---                                      ---
               AG WELLS  =     5917974.5000                 AG WELLS  =          64.5716
      DIVERSION SEGMENTS =    89085984.0000        DIVERSION SEGMENTS =          23.4796
           GW IRRIGATION =           0.0000             GW IRRIGATION =           0.0000
           SW IRRIGATION =           0.0000             SW IRRIGATION =           0.0000
        SYSTEM LOSSES GW =           0.0000          SYSTEM LOSSES GW =           0.0000
        SYSTEM LOSSES SW =           0.0000          SYSTEM LOSSES SW =           0.0000

                TOTAL IN =    95003960.0000                  TOTAL IN =          88.0512

          OUT:                                     OUT:
          ----                                     ----
               AG WELLS  =           0.0000                 AG WELLS  =           0.0000
      DIVERSION SEGMENTS =           0.0000        DIVERSION SEGMENTS =           0.0000
           GW IRRIGATION =     5917974.5000             GW IRRIGATION =          64.5716
           SW IRRIGATION =    89087760.0000             SW IRRIGATION =          23.4801
        SYSTEM LOSSES GW =           0.0000          SYSTEM LOSSES GW =           0.0000
        SYSTEM LOSSES SW =           0.0000          SYSTEM LOSSES SW =           0.0000

               TOTAL OUT =    95005736.0000                 TOTAL OUT =          88.0517

                IN - OUT =       -1776.0000                  IN - OUT =      -4.6539E-04

     PERCENT DISCREPANCY =          -0.00         PERCENT DISCREPANCY =          -0.00



1
  VOLUMETRIC BUDGET FOR ENTIRE MODEL AT END OF TIME STEP    1, STRESS PERIOD   8
  ------------------------------------------------------------------------------

     CUMULATIVE VOLUMES      L**3       RATES FOR THIS TIME STEP      L**3/T
     ------------------                 ------------------------

           IN:                                      IN:
           ---                                      ---
             STORAGE     =    16657812.0000               STORAGE     =          65.0149
       CONSTANT HEAD     =           0.0000         CONSTANT HEAD     =           0.0000
     HEAD DEP BOUNDS     =     4592710.5000       HEAD DEP BOUNDS     =           0.2880
      STREAM LEAKAGE     =   189047200.0000        STREAM LEAKAGE     =          11.9235
        UZF RECHARGE     =       73223.9531          UZF RECHARGE     =           0.0000
               GW ET     =           0.0000                 GW ET     =           0.0000
     SURFACE LEAKAGE     =           0.0000       SURFACE LEAKAGE     =           0.0000
           AG WELLS      =           0.0000             AG WELLS      =           0.0000

                TOTAL IN =   210370944.0000                  TOTAL IN =          77.2264

          OUT:                                     OUT:
          ----                                     ----
             STORAGE     =    35674588.0000               STORAGE     =           1.4764
       CONSTANT HEAD     =           0.0000         CONSTANT HEAD     =           0.0000
     HEAD DEP BOUNDS     =     4603490.0000       HEAD DEP BOUNDS     =           0.2880
      STREAM LEAKAGE     =   164178048.0000        STREAM LEAKAGE     =          10.8902
        UZF RECHARGE     =           0.0000          UZF RECHARGE     =           0.0000
               GW ET     =           0.0000                 GW ET     =           0.0000
     SURFACE LEAKAGE     =           0.0000       SURFACE LEAKAGE     =           0.0000
           AG WELLS      =     5917974.5000             AG WELLS      =          64.5716

               TOTAL OUT =   210374096.0000                 TOTAL OUT =          77.2263

                IN - OUT =       -3152.0000                  IN - OUT =       3.8147E-05

     PERCENT DISCREPANCY =          -0.00         PERCENT DISCREPANCY =           0.00






         TIME SUMMARY AT END OF TIME STEP    1 IN STRESS PERIOD    8
                    SECONDS     MINUTES      HOURS       DAYS        YEARS
                    -----------------------------------------------------------
   TIME STEP LENGTH  87667.      1461.1      24.352      1.0147     2.77799E-03
 STRESS PERIOD TIME  87667.      1461.1      24.352      1.0147     2.77799E-03
         TOTAL TIME 1.59541E+07 2.65901E+05  4431.7      184.65     0.50555    
1
 
 SOLVING FOR HEAD 
                                                   Max.-Head-Change                         Max.-Flux-Residual
  Residual-Control   Outer-Iter.   Inner-Iter.     Column Row Layer    Maximum-Head-Change  Column Row Layer    Maximum-Flux-Residual          L2-NORM 
          0                 1           2             4   13     1       0.7454926248E-02       4   13    1         0.4283253575E+00      0.1070746504E+01
          0                 2           2             4    7     1      -0.1358789648E+00       5    6    1        -0.7319579901E+01      0.1792932779E+02
          0                 3           2             4    7     1       0.9251992780E-02       5    6    1         0.5122831831E+00      0.1254648665E+01
          0                 4           2             4    7     1      -0.3681459860E-03       5    6    1        -0.2094444515E-01      0.5139613099E-01
          0                 5           1             4    7     1       0.4539398646E-05       5    6    1         0.2648879431E-03      0.6695439712E-03

    ------------------------------------------------
       NWT REQUIRED            5 OUTER ITERATIONS 
       AND A TOTAL OF          9 INNER ITERATIONS.
    ------------------------------------------------

 NO OUTPUT CONTROL FOR STRESS PERIOD    8   TIME STEP    2
 
 SOLVING FOR HEAD 
                                                   Max.-Head-Change                         Max.-Flux-Residual
  Residual-Control   Outer-Iter.   Inner-Iter.     Column Row Layer    Maximum-Head-Change  Column Row Layer    Maximum-Flux-Residual          L2-NORM 
          0                 1           2             5    6     1       0.9981616872E-02       5    6    1         0.5455058312E+00      0.1389079879E+01
          0                 2           2             4    7     1      -0.2957455837E+00       5    6    1        -0.1591500704E+02      0.3895403356E+02
          0                 3           2             4    7     1       0.2013865716E-01       5    6    1         0.1113844959E+01      0.2726848457E+01
          0                 4           2             4    7     1      -0.8013385099E-03       5    6    1        -0.4553885110E-01      0.1115608459E+00
          0                 5           1             4    7     1       0.9880847488E-05       4    6    1         0.5759240071E-03      0.1425959462E-02

    ------------------------------------------------
       NWT REQUIRED            5 OUTER ITERATIONS 
       AND A TOTAL OF          9 INNER ITERATIONS.
    ------------------------------------------------

 NO OUTPUT CONTROL FOR STRESS PERIOD    8   TIME STEP    3
 
 SOLVING FOR HEAD 
                                                   Max.-Head-Change                         Max.-Flux-Residual
  Residual-Control   Outer-Iter.   Inner-Iter.     Column Row Layer    Maximum-Head-Change  Column Row Layer    Maximum-Flux-Residual          L2-NORM 
          0                 1           2             5    8     1       0.1766754978E-01       5    8    1         0.9706589897E+00      0.2215504251E+01
          0                 2           2             4    7     1      -0.1146122656E+00       5    8    1        -0.6225914512E+01      0.1520680175E+02
          0                 3           2             4    7     1       0.7804597986E-02       5    8    1         0.4357411948E+00      0.1065659293E+01
          0                 4           2             4    7     1      -0.3105526008E-03       5    8    1        -0.1781767974E-01      0.4367691313E-01
          0                 5           1             4    7     1       0.3829247662E-05       5    8    1         0.2255132135E-03      0.5723921626E-03

    ------------------------------------------------
       NWT REQUIRED            5 OUTER ITERATIONS 
       AND A TOTAL OF          9 INNER ITERATIONS.
    ------------------------------------------------

 NO OUTPUT CONTROL FOR STRESS PERIOD    8   TIME STEP    4
 
 SOLVING FOR HEAD 
                                                   Max.-Head-Change                         Max.-Flux-Residual
  Residual-Control   Outer-Iter.   Inner-Iter.     Column Row Layer    Maximum-Head-Change  Column Row Layer    Maximum-Flux-Residual          L2-NORM 
          0                 1           2             5    8     1       0.1994392560E-01       5    8    1         0.1095312842E+01      0.2484663151E+01
          0                 2           2             4    7     1      -0.2962486326E+00       5    8    1        -0.1598328325E+02      0.3907892695E+02
          0                 3           2             4    7     1       0.2017292207E-01       5    6    1         0.1118598943E+01      0.2735577809E+01
          0                 4           2             4    7     1      -0.8027018968E-03       5    6    1        -0.4573536731E-01      0.1119128765E+00
          0                 5           1             4    7     1       0.9897658339E-05       5    6    1         0.5785543644E-03      0.1428790454E-02

    ------------------------------------------------
       NWT REQUIRED            5 OUTER ITERATIONS 
       AND A TOTAL OF          9 INNER ITERATIONS.
    ------------------------------------------------

 OUTPUT CONTROL FOR STRESS PERIOD    8   TIME STEP    5
    PRINT BUDGET
    SAVE BUDGET
 UBDSV1 SAVING "         STORAGE" ON UNIT 102 AT TIME STEP  5, STRESS PERIOD   8
 UBDSV2 SAVING "   CONSTANT HEAD" ON UNIT 102 AT TIME STEP  5, STRESS PERIOD   8
 UBDSV1 SAVING "FLOW RIGHT FACE " ON UNIT 102 AT TIME STEP  5, STRESS PERIOD   8
 UBDSV1 SAVING "FLOW FRONT FACE " ON UNIT 102 AT TIME STEP  5, STRESS PERIOD   8

  HEAD DEP BOUNDS   PERIOD    8   STEP     5
 BOUNDARY      1   LAYER   1   ROW    13   COL     1   RATE   -0.287754    
 BOUNDARY      2   LAYER   1   ROW    14   COL     9   RATE    0.287954    



 STREAM LISTING     PERIOD      8   STEP        5

 LAYER ROW COL. STREAM  RCH.  FLOW INTO     FLOW TO   FLOW OUT OF   OVRLND.     DIRECT     STREAM       STREAM     STREAM     STREAM   STREAMBED  STREAMBED
                SEG.NO.  NO.  STRM. RCH.    AQUIFER    STRM. RCH.    RUNOFF     PRECIP       ET          HEAD       DEPTH      WIDTH   CONDCTNC.   GRADIENT

   1    1    1     1     1    2.8125E+01  2.5915E-01   2.7866E+01  0.000E+00  0.000E+00  0.000E+00  1.09427E+03  1.223E+00  1.364E+01  6.137E-02  1.408E+00
   1    2    2     1     2    2.7866E+01  4.0087E-01   2.7465E+01  0.000E+00  0.000E+00  0.000E+00  1.08928E+03  1.218E+00  1.358E+01  9.503E-02  1.406E+00
   1    3    3     1     3    2.7465E+01  3.4143E-01   2.7124E+01  0.000E+00  0.000E+00  0.000E+00  1.08363E+03  1.213E+00  1.351E+01  8.104E-02  1.404E+00
   1    3    4     1     4    2.7124E+01  3.1403E-01   2.6810E+01  0.000E+00  0.000E+00  0.000E+00  1.07862E+03  1.209E+00  1.344E+01  7.461E-02  1.403E+00
   1    4    5     2     1    2.4810E+01  3.2739E-01   2.4482E+01  0.000E+00  0.000E+00  0.000E+00  1.07313E+03  1.197E+00  1.200E+01  7.800E-02  1.399E+00
   1    5    6     2     2    2.4482E+01  2.5133E-01   2.4231E+01  0.000E+00  0.000E+00  0.000E+00  1.06770E+03  1.189E+00  1.200E+01  6.000E-02  1.396E+00
   1    6    6     2     3    2.4231E+01  2.5089E-01   2.3980E+01  0.000E+00  0.000E+00  0.000E+00  1.06297E+03  1.181E+00  1.200E+01  6.000E-02  1.394E+00
   1    7    6     2     4    2.3980E+01  2.5044E-01   2.3730E+01  0.000E+00  0.000E+00  0.000E+00  1.05825E+03  1.174E+00  1.200E+01  6.000E-02  1.391E+00
   1    8    6     2     5    2.3730E+01  2.5000E-01   2.3480E+01  0.000E+00  0.000E+00  0.000E+00  1.05353E+03  1.167E+00  1.200E+01  6.000E-02  1.389E+00
   1    3    5     3     1    2.0000E+00  2.8252E-01   1.7175E+00  0.000E+00  0.000E+00  0.000E+00  1.07555E+03  1.909E+00  9.636E+00  7.227E-02  1.955E+00
   1    3    6     3     2    1.7175E+00  2.4905E-01   1.4684E+00  0.000E+00  0.000E+00  0.000E+00  1.07264E+03  1.727E+00  8.909E+00  6.682E-02  1.864E+00
   1    3    7     3     3    1.4684E+00  1.9718E-01   1.2712E+00  0.000E+00  0.000E+00  0.000E+00  1.06987E+03  1.555E+00  8.218E+00  5.547E-02  1.777E+00
   1    4    8     3     4    1.2712E+00  2.2567E-01   1.0456E+00  0.000E+00  0.000E+00  0.000E+00  1.06682E+03  1.364E+00  7.455E+00  6.709E-02  1.682E+00
   1    5    8     3     5    1.0456E+00  1.5790E-01   8.8768E-01  0.000E+00  0.000E+00  0.000E+00  1.06362E+03  1.164E+00  6.655E+00  4.991E-02  1.582E+00
   1    6    8     3     6    8.8768E-01  5.5980E-02   8.3170E-01  0.000E+00  0.000E+00  0.000E+00  1.06158E+03  1.036E+00  6.145E+00  1.844E-02  1.518E+00
   1    5   10     4     1    1.0000E+01  9.0919E-02   9.9091E+00  0.000E+00  0.000E+00  0.000E+00  1.07836E+03  6.368E-01  1.000E+01  2.500E-02  1.212E+00
   1    5    9     4     2    9.9091E+00  1.8158E-01   9.7275E+00  0.000E+00  0.000E+00  0.000E+00  1.07154E+03  6.315E-01  1.000E+01  5.000E-02  1.211E+00
   1    6    8     4     3    9.7275E+00  1.2689E-01   9.6006E+00  0.000E+00  0.000E+00  0.000E+00  1.06381E+03  6.256E-01  1.000E+01  3.500E-02  1.209E+00
   1    6    8     5     1    1.0432E+01  2.2686E-01   1.0205E+01  0.000E+00  0.000E+00  0.000E+00  1.05868E+03  6.790E-01  1.542E+01  6.166E-02  1.226E+00
   1    7    7     5     2    1.0205E+01  2.7894E-01   9.9265E+00  0.000E+00  0.000E+00  0.000E+00  1.05417E+03  6.732E-01  1.519E+01  7.594E-02  1.224E+00
   1    8    7     5     3    9.9265E+00  1.9221E-01   9.7343E+00  0.000E+00  0.000E+00  0.000E+00  1.04992E+03  6.676E-01  1.497E+01  5.241E-02  1.223E+00
   1    8    6     5     4    9.7343E+00  1.3577E-01   9.5985E+00  0.000E+00  0.000E+00  0.000E+00  1.04691E+03  6.637E-01  1.482E+01  3.706E-02  1.221E+00
   1    9    6     6     1    9.5985E+00  2.2097E-01   9.3776E+00  0.000E+00  0.000E+00  0.000E+00  1.04341E+03  6.828E-01  1.200E+01  6.000E-02  1.228E+00
   1   10    7     6     2    9.3776E+00  2.2039E-01   9.1572E+00  0.000E+00  0.000E+00  0.000E+00  1.03885E+03  6.732E-01  1.200E+01  6.000E-02  1.224E+00
   1   11    7     6     3    9.1572E+00  2.1981E-01   8.9374E+00  0.000E+00  0.000E+00  0.000E+00  1.03430E+03  6.636E-01  1.200E+01  6.000E-02  1.221E+00
   1   12    7     6     4    8.9374E+00  2.1923E-01   8.7181E+00  0.000E+00  0.000E+00  0.000E+00  1.02974E+03  6.539E-01  1.200E+01  6.000E-02  1.218E+00
   1   13    7     6     5    8.7181E+00 -6.9594E-02   8.7877E+00  0.000E+00  0.000E+00  0.000E+00  1.02656E+03  6.505E-01  1.200E+01  2.400E-01 -9.666E-02
   1   14    9     7     1    1.5000E+02  1.3681E+00   1.4863E+02  0.000E+00  0.000E+00  0.000E+00  1.03987E+03  2.288E+00  5.529E+01  5.593E-01  8.153E-01
   1   13    8     7     2    1.4863E+02  1.9153E+00   1.4672E+02  0.000E+00  0.000E+00  0.000E+00  1.03478E+03  2.279E+00  5.526E+01  6.148E-01  1.039E+00
   1   13    7     7     3    1.4672E+02  1.5855E+00   1.4513E+02  0.000E+00  0.000E+00  0.000E+00  1.02969E+03  2.270E+00  5.521E+01  5.584E-01  9.464E-01
   1   13    6     8     1    1.5392E+02  9.3509E-01   1.5298E+02  0.000E+00  0.000E+00  0.000E+00  1.02472E+03  2.841E+00  4.119E+01  4.198E-01  7.425E-01
   1   13    5     8     2    1.5298E+02  1.9659E-01   1.5279E+02  0.000E+00  0.000E+00  0.000E+00  1.01846E+03  2.837E+00  4.114E+01  4.192E-01  1.563E-01
   1   13    4     8     3    1.5279E+02 -2.3896E+00   1.5518E+02  0.000E+00  0.000E+00  0.000E+00  1.01222E+03  2.845E+00  4.125E+01  4.203E+00 -1.895E-01
   1   13    3     8     4    1.5518E+02 -3.6487E+00   1.5883E+02  0.000E+00  0.000E+00  0.000E+00  1.00599E+03  2.865E+00  4.155E+01  4.234E+00 -2.873E-01
   1   13    2     8     5    1.5883E+02 -2.6444E+00   1.6147E+02  0.000E+00  0.000E+00  0.000E+00  9.99762E+02  2.887E+00  4.186E+01  4.266E+00 -2.066E-01
   1   13    1     8     6    1.6147E+02 -2.0454E+00   1.6352E+02  0.000E+00  0.000E+00  0.000E+00  9.94778E+02  2.903E+00  4.209E+01  2.573E+00 -2.649E-01
   1    8    6     9     1    2.3480E+01  0.0000E+00   2.3480E+01  0.000E+00  0.000E+00  0.000E+00  1.08253E+03  3.782E+00  4.000E+00  0.000E+00  2.261E+00
   1    8    5     9     2    2.3480E+01  0.0000E+00   2.3480E+01  0.000E+00  0.000E+00  0.000E+00  1.08203E+03  3.782E+00  4.000E+00  0.000E+00  2.261E+00



 UBDSV3 SAVING "           GW ET" ON UNIT  61 AT TIME STEP  5, STRESS PERIOD   8
 UBDSV3 SAVING "    UZF RECHARGE" ON UNIT  61 AT TIME STEP  5, STRESS PERIOD   8
 UBDSV3 SAVING " SURFACE LEAKAGE" ON UNIT  61 AT TIME STEP  5, STRESS PERIOD   8
 UBDSV3 SAVING "       HORT+DUNN" ON UNIT  61 AT TIME STEP  5, STRESS PERIOD   8
 UBDSV3 SAVING "  STORAGE CHANGE" ON UNIT  61 AT TIME STEP  5, STRESS PERIOD   8


UNSATURATED ZONE PACKAGE VOLUMETRIC BUDGET FOR  TIME STEP     5 STRESS PERIOD    8
  ------------------------------------------------------------------------------



     CUMULATIVE VOLUMES      L**3       RATES FOR THIS TIME STEP      L**3/T
     ------------------                 ------------------------

           IN:                                      IN:
           ---                                      ---
        INFILTRATION =   198495367.7092          INFILTRATION =         123.1301

          OUT:                                     OUT:
          ----                                     ----
              UZF ET =   164425201.1660                UZF ET =          64.1075
        UZF RECHARGE =       73224.0000          UZF RECHARGE =       0.0000E+00

            IN - OUT =    33996942.5432              IN - OUT =          59.0226

          STORAGE:                                 STORAGE:
          --------                                 --------
      STORAGE CHANGE =    33996940.8554        STORAGE CHANGE =          59.0226

 PERCENT DISCREPANCY IS DIFFERENCE BETWEEN IN-OUT MINUS CHANGE IN STORAGE
 DIVIDED BY THE AVERAGE OF IN AND OUT TIMES 100

 PERCENT DISCREPANCY =           0.00     PERCENT DISCREPANCY =           0.00






 

            AG WELLS      PERIOD    8   STEP   5
 AG WELL      1   LAYER   1   ROW     6   COL     4   RATE    -15.8738    
 AG WELL      2   LAYER   1   ROW     6   COL     5   RATE    -15.8738    
 AG WELL      3   LAYER   1   ROW     7   COL     4   RATE    -15.8738    
 AG WELL      4   LAYER   1   ROW     7   COL     5   RATE    -15.8738    
 AG WELL      5   LAYER   1   ROW     8   COL     4   RATE    -15.8738    
 AG WELL      6   LAYER   1   ROW     8   COL     5   RATE    -15.8738    
 
 

   DIVERSION SEGMENTS     PERIOD    8   STEP   5
 SEGMENT      9   RATE     23.4796    
 
 

        SW IRRIGATION     PERIOD    8   STEP   5
 SEGMENT      9   ROW     6   COL     4   RATE     3.91334    
 SEGMENT      9   ROW     6   COL     5   RATE     3.91334    
 SEGMENT      9   ROW     7   COL     4   RATE     3.91334    
 SEGMENT      9   ROW     7   COL     5   RATE     3.91334    
 SEGMENT      9   ROW     8   COL     4   RATE     3.91334    
 SEGMENT      9   ROW     8   COL     5   RATE     3.91334    
 
 

        GW IRRIGATION     PERIOD    8   STEP   5
 AG WELL      1   ROW     6   COL     4   RATE     15.8738    
 AG WELL      2   ROW     6   COL     5   RATE     15.8738    
 AG WELL      3   ROW     7   COL     4   RATE     15.8738    
 AG WELL      4   ROW     7   COL     5   RATE     15.8738    
 AG WELL      5   ROW     8   COL     4   RATE     15.8738    
 AG WELL      6   ROW     8   COL     5   RATE     15.8738    
 
1
  VOLUMETRIC BUDGET FOR AGRICULTURAL FIELDS AT  END OF TIME STEP    5, STRESS PERIOD   8
  ------------------------------------------------------------------------------

     CUMULATIVE VOLUMES      L**3       RATES FOR THIS TIME STEP      L**3/T
     ------------------                 ------------------------

           IN:                                      IN:
           ---                                      ---
               AG WELLS  =    29665248.0000                 AG WELLS  =          95.2425
      DIVERSION SEGMENTS =    97319488.0000        DIVERSION SEGMENTS =          23.4796
           GW IRRIGATION =           0.0000             GW IRRIGATION =           0.0000
           SW IRRIGATION =           0.0000             SW IRRIGATION =           0.0000
        SYSTEM LOSSES GW =           0.0000          SYSTEM LOSSES GW =           0.0000
        SYSTEM LOSSES SW =           0.0000          SYSTEM LOSSES SW =           0.0000

                TOTAL IN =   126984736.0000                  TOTAL IN =         118.7221

          OUT:                                     OUT:
          ----                                     ----
               AG WELLS  =           0.0000                 AG WELLS  =           0.0000
      DIVERSION SEGMENTS =           0.0000        DIVERSION SEGMENTS =           0.0000
           GW IRRIGATION =    29665248.0000             GW IRRIGATION =          95.2425
           SW IRRIGATION =    97321424.0000             SW IRRIGATION =          23.4801
        SYSTEM LOSSES GW =           0.0000          SYSTEM LOSSES GW =           0.0000
        SYSTEM LOSSES SW =           0.0000          SYSTEM LOSSES SW =           0.0000

               TOTAL OUT =   126986672.0000                 TOTAL OUT =         118.7226

                IN - OUT =       -1936.0000                  IN - OUT =      -4.7302E-04

     PERCENT DISCREPANCY =          -0.00         PERCENT DISCREPANCY =          -0.00



1
  VOLUMETRIC BUDGET FOR ENTIRE MODEL AT END OF TIME STEP    5, STRESS PERIOD   8
  ------------------------------------------------------------------------------

     CUMULATIVE VOLUMES      L**3       RATES FOR THIS TIME STEP      L**3/T
     ------------------                 ------------------------

           IN:                                      IN:
           ---                                      ---
             STORAGE     =    40494020.0000               STORAGE     =          95.3693
       CONSTANT HEAD     =           0.0000         CONSTANT HEAD     =           0.0000
     HEAD DEP BOUNDS     =     4693686.5000       HEAD DEP BOUNDS     =           0.2880
      STREAM LEAKAGE     =   193229344.0000        STREAM LEAKAGE     =          11.9280
        UZF RECHARGE     =       73223.9531          UZF RECHARGE     =           0.0000
               GW ET     =           0.0000                 GW ET     =           0.0000
     SURFACE LEAKAGE     =           0.0000       SURFACE LEAKAGE     =           0.0000
           AG WELLS      =           0.0000             AG WELLS      =           0.0000

                TOTAL IN =   238490272.0000                  TOTAL IN =         107.5852

          OUT:                                     OUT:
          ----                                     ----
             STORAGE     =    36147876.0000               STORAGE     =           1.2572
       CONSTANT HEAD     =           0.0000         CONSTANT HEAD     =           0.0000
     HEAD DEP BOUNDS     =     4704425.0000       HEAD DEP BOUNDS     =           0.2878
      STREAM LEAKAGE     =   167975904.0000        STREAM LEAKAGE     =          10.7977
        UZF RECHARGE     =           0.0000          UZF RECHARGE     =           0.0000
               GW ET     =           0.0000                 GW ET     =           0.0000
     SURFACE LEAKAGE     =           0.0000       SURFACE LEAKAGE     =           0.0000
           AG WELLS      =    29665248.0000             AG WELLS      =          95.2425

               TOTAL OUT =   238493456.0000                 TOTAL OUT =         107.5852

                IN - OUT =       -3184.0000                  IN - OUT =       4.5776E-05

     PERCENT DISCREPANCY =          -0.00         PERCENT DISCREPANCY =           0.00






         TIME SUMMARY AT END OF TIME STEP    5 IN STRESS PERIOD    8
                    SECONDS     MINUTES      HOURS       DAYS        YEARS
                    -----------------------------------------------------------
   TIME STEP LENGTH  87667.      1461.1      24.352      1.0147     2.77799E-03
 STRESS PERIOD TIME 4.38333E+05  7305.6      121.76      5.0733     1.38899E-02
         TOTAL TIME 1.63048E+07 2.71746E+05  4529.1      188.71     0.51667    
1
 
 SOLVING FOR HEAD 
                                                   Max.-Head-Change                         Max.-Flux-Residual
  Residual-Control   Outer-Iter.   Inner-Iter.     Column Row Layer    Maximum-Head-Change  Column Row Layer    Maximum-Flux-Residual          L2-NORM 
          0                 1           2             5    8     1       0.2721910119E-01       5    8    1         0.1495216898E+01      0.3326132344E+01
          0                 2           2             4    7     1      -0.1148306938E+00       5    8    1        -0.6275721388E+01      0.1529010442E+02
          0                 3           2             4    7     1       0.7819475797E-02       5    8    1         0.4392482830E+00      0.1071502186E+01
          0                 4           2             4    7     1      -0.3111445847E-03       5    8    1        -0.1796318116E-01      0.4391614776E-01
          0                 5           1             4    7     1       0.3836547445E-05       5    8    1         0.2274969356E-03      0.5747847647E-03

    ------------------------------------------------
       NWT REQUIRED            5 OUTER ITERATIONS 
       AND A TOTAL OF          9 INNER ITERATIONS.
    ------------------------------------------------

 NO OUTPUT CONTROL FOR STRESS PERIOD    8   TIME STEP    6
 
 SOLVING FOR HEAD 
                                                   Max.-Head-Change                         Max.-Flux-Residual
  Residual-Control   Outer-Iter.   Inner-Iter.     Column Row Layer    Maximum-Head-Change  Column Row Layer    Maximum-Flux-Residual          L2-NORM 
          0                 1           2             5    8     1       0.2898637577E-01       5    8    1         0.1591477192E+01      0.3552059924E+01
          0                 2           2             4    7     1      -0.2965298114E+00       5    8    1        -0.1603293157E+02      0.3916530477E+02
          0                 3           2             4    7     1       0.2019215215E-01       5    8    1         0.1132505723E+01      0.2745978393E+01
          0                 4           2             4    7     1      -0.8034668558E-03       5    8    1        -0.4630898704E-01      0.1123343675E+00
          0                 5           1             4    7     1       0.9907090660E-05       5    8    1         0.5861516065E-03      0.1432553191E-02

    ------------------------------------------------
       NWT REQUIRED            5 OUTER ITERATIONS 
       AND A TOTAL OF          9 INNER ITERATIONS.
    ------------------------------------------------

 NO OUTPUT CONTROL FOR STRESS PERIOD    8   TIME STEP    7
 
 SOLVING FOR HEAD 
                                                   Max.-Head-Change                         Max.-Flux-Residual
  Residual-Control   Outer-Iter.   Inner-Iter.     Column Row Layer    Maximum-Head-Change  Column Row Layer    Maximum-Flux-Residual          L2-NORM 
          0                 1           2             5    8     1       0.3588934457E-01       5    8    1         0.1973525121E+01      0.4366865300E+01
          0                 2           2             4    7     1      -0.1151208135E+00       5    8    1        -0.6323542726E+01      0.1537451171E+02
          0                 3           2             4    7     1       0.7839240642E-02       5    8    1         0.4426371722E+00      0.1077447446E+01
          0                 4           2             4    7     1      -0.3119310036E-03       5    8    1        -0.1810319045E-01      0.4416050366E-01
          0                 5           1             4    7     1       0.3846244009E-05       5    8    1         0.2293748407E-03      0.5823769377E-03

    ------------------------------------------------
       NWT REQUIRED            5 OUTER ITERATIONS 
       AND A TOTAL OF          9 INNER ITERATIONS.
    ------------------------------------------------

 NO OUTPUT CONTROL FOR STRESS PERIOD    8   TIME STEP    8
 
 SOLVING FOR HEAD 
                                                   Max.-Head-Change                         Max.-Flux-Residual
  Residual-Control   Outer-Iter.   Inner-Iter.     Column Row Layer    Maximum-Head-Change  Column Row Layer    Maximum-Flux-Residual          L2-NORM 
          0                 1           2             5    8     1       0.3725773075E-01       5    8    1         0.2047686131E+01      0.4551036468E+01
          0                 2           2             4    7     1      -0.2968305101E+00       5    8    1        -0.1607854831E+02      0.3924653132E+02
          0                 3           2             4    7     1       0.2021259822E-01       5    8    1         0.1125332563E+01      0.2747445178E+01
          0                 4           2             4    7     1      -0.8042803930E-03       5    8    1        -0.4601248314E-01      0.1123925297E+00
          0                 5           1             4    7     1       0.9917122373E-05       5    6    1         0.5822204184E-03      0.1432848397E-02

    ------------------------------------------------
       NWT REQUIRED            5 OUTER ITERATIONS 
       AND A TOTAL OF          9 INNER ITERATIONS.
    ------------------------------------------------

 NO OUTPUT CONTROL FOR STRESS PERIOD    8   TIME STEP    9
 
 SOLVING FOR HEAD 
                                                   Max.-Head-Change                         Max.-Flux-Residual
  Residual-Control   Outer-Iter.   Inner-Iter.     Column Row Layer    Maximum-Head-Change  Column Row Layer    Maximum-Flux-Residual          L2-NORM 
          0                 1           2             5    8     1       0.4383691035E-01       5    8    1         0.2409428923E+01      0.5330371208E+01
          0                 2           2             5    6     1      -0.1156304172E+00       5    8    1        -0.6367132395E+01      0.1545392976E+02
          0                 3           2             5    6     1       0.7873945490E-02       5    8    1         0.4456957880E+00      0.1082993492E+01
          0                 4           2             5    6     1      -0.3133119293E-03       5    8    1        -0.1822900014E-01      0.4438648943E-01
          0                 5           1             5    6     1       0.3863264999E-05       5    8    1         0.2310175951E-03      0.5801510450E-03

    ------------------------------------------------
       NWT REQUIRED            5 OUTER ITERATIONS 
       AND A TOTAL OF          9 INNER ITERATIONS.
    ------------------------------------------------

 OUTPUT CONTROL FOR STRESS PERIOD    8   TIME STEP   10
    PRINT BUDGET
    SAVE BUDGET
 UBDSV1 SAVING "         STORAGE" ON UNIT 102 AT TIME STEP 10, STRESS PERIOD   8
 UBDSV2 SAVING "   CONSTANT HEAD" ON UNIT 102 AT TIME STEP 10, STRESS PERIOD   8
 UBDSV1 SAVING "FLOW RIGHT FACE " ON UNIT 102 AT TIME STEP 10, STRESS PERIOD   8
 UBDSV1 SAVING "FLOW FRONT FACE " ON UNIT 102 AT TIME STEP 10, STRESS PERIOD   8

  HEAD DEP BOUNDS   PERIOD    8   STEP    10
 BOUNDARY      1   LAYER   1   ROW    13   COL     1   RATE   -0.287516    
 BOUNDARY      2   LAYER   1   ROW    14   COL     9   RATE    0.287956    



 STREAM LISTING     PERIOD      8   STEP       10

 LAYER ROW COL. STREAM  RCH.  FLOW INTO     FLOW TO   FLOW OUT OF   OVRLND.     DIRECT     STREAM       STREAM     STREAM     STREAM   STREAMBED  STREAMBED
                SEG.NO.  NO.  STRM. RCH.    AQUIFER    STRM. RCH.    RUNOFF     PRECIP       ET          HEAD       DEPTH      WIDTH   CONDCTNC.   GRADIENT

   1    1    1     1     1    2.8125E+01  2.5915E-01   2.7866E+01  0.000E+00  0.000E+00  0.000E+00  1.09427E+03  1.223E+00  1.364E+01  6.137E-02  1.408E+00
   1    2    2     1     2    2.7866E+01  4.0087E-01   2.7465E+01  0.000E+00  0.000E+00  0.000E+00  1.08928E+03  1.218E+00  1.358E+01  9.503E-02  1.406E+00
   1    3    3     1     3    2.7465E+01  3.4143E-01   2.7124E+01  0.000E+00  0.000E+00  0.000E+00  1.08363E+03  1.213E+00  1.351E+01  8.104E-02  1.404E+00
   1    3    4     1     4    2.7124E+01  3.1403E-01   2.6810E+01  0.000E+00  0.000E+00  0.000E+00  1.07862E+03  1.209E+00  1.344E+01  7.461E-02  1.403E+00
   1    4    5     2     1    2.4810E+01  3.2739E-01   2.4482E+01  0.000E+00  0.000E+00  0.000E+00  1.07313E+03  1.197E+00  1.200E+01  7.800E-02  1.399E+00
   1    5    6     2     2    2.4482E+01  2.5133E-01   2.4231E+01  0.000E+00  0.000E+00  0.000E+00  1.06770E+03  1.189E+00  1.200E+01  6.000E-02  1.396E+00
   1    6    6     2     3    2.4231E+01  2.5089E-01   2.3980E+01  0.000E+00  0.000E+00  0.000E+00  1.06297E+03  1.181E+00  1.200E+01  6.000E-02  1.394E+00
   1    7    6     2     4    2.3980E+01  2.5044E-01   2.3730E+01  0.000E+00  0.000E+00  0.000E+00  1.05825E+03  1.174E+00  1.200E+01  6.000E-02  1.391E+00
   1    8    6     2     5    2.3730E+01  2.5000E-01   2.3480E+01  0.000E+00  0.000E+00  0.000E+00  1.05353E+03  1.167E+00  1.200E+01  6.000E-02  1.389E+00
   1    3    5     3     1    2.0000E+00  2.8252E-01   1.7175E+00  0.000E+00  0.000E+00  0.000E+00  1.07555E+03  1.909E+00  9.636E+00  7.227E-02  1.955E+00
   1    3    6     3     2    1.7175E+00  2.4905E-01   1.4684E+00  0.000E+00  0.000E+00  0.000E+00  1.07264E+03  1.727E+00  8.909E+00  6.682E-02  1.864E+00
   1    3    7     3     3    1.4684E+00  1.9718E-01   1.2712E+00  0.000E+00  0.000E+00  0.000E+00  1.06987E+03  1.555E+00  8.218E+00  5.547E-02  1.777E+00
   1    4    8     3     4    1.2712E+00  2.2567E-01   1.0456E+00  0.000E+00  0.000E+00  0.000E+00  1.06682E+03  1.364E+00  7.455E+00  6.709E-02  1.682E+00
   1    5    8     3     5    1.0456E+00  1.5790E-01   8.8768E-01  0.000E+00  0.000E+00  0.000E+00  1.06362E+03  1.164E+00  6.655E+00  4.991E-02  1.582E+00
   1    6    8     3     6    8.8768E-01  5.5980E-02   8.3170E-01  0.000E+00  0.000E+00  0.000E+00  1.06158E+03  1.036E+00  6.145E+00  1.844E-02  1.518E+00
   1    5   10     4     1    1.0000E+01  9.0919E-02   9.9091E+00  0.000E+00  0.000E+00  0.000E+00  1.07836E+03  6.368E-01  1.000E+01  2.500E-02  1.212E+00
   1    5    9     4     2    9.9091E+00  1.8158E-01   9.7275E+00  0.000E+00  0.000E+00  0.000E+00  1.07154E+03  6.315E-01  1.000E+01  5.000E-02  1.211E+00
   1    6    8     4     3    9.7275E+00  1.2689E-01   9.6006E+00  0.000E+00  0.000E+00  0.000E+00  1.06381E+03  6.256E-01  1.000E+01  3.500E-02  1.209E+00
   1    6    8     5     1    1.0432E+01  2.2686E-01   1.0205E+01  0.000E+00  0.000E+00  0.000E+00  1.05868E+03  6.790E-01  1.542E+01  6.166E-02  1.226E+00
   1    7    7     5     2    1.0205E+01  2.7894E-01   9.9265E+00  0.000E+00  0.000E+00  0.000E+00  1.05417E+03  6.732E-01  1.519E+01  7.594E-02  1.224E+00
   1    8    7     5     3    9.9265E+00  1.9221E-01   9.7343E+00  0.000E+00  0.000E+00  0.000E+00  1.04992E+03  6.676E-01  1.497E+01  5.241E-02  1.223E+00
   1    8    6     5     4    9.7343E+00  1.3577E-01   9.5985E+00  0.000E+00  0.000E+00  0.000E+00  1.04691E+03  6.637E-01  1.482E+01  3.706E-02  1.221E+00
   1    9    6     6     1    9.5985E+00  2.2097E-01   9.3776E+00  0.000E+00  0.000E+00  0.000E+00  1.04341E+03  6.828E-01  1.200E+01  6.000E-02  1.228E+00
   1   10    7     6     2    9.3776E+00  2.2039E-01   9.1572E+00  0.000E+00  0.000E+00  0.000E+00  1.03885E+03  6.732E-01  1.200E+01  6.000E-02  1.224E+00
   1   11    7     6     3    9.1572E+00  2.1981E-01   8.9374E+00  0.000E+00  0.000E+00  0.000E+00  1.03430E+03  6.636E-01  1.200E+01  6.000E-02  1.221E+00
   1   12    7     6     4    8.9374E+00  2.1923E-01   8.7181E+00  0.000E+00  0.000E+00  0.000E+00  1.02974E+03  6.539E-01  1.200E+01  6.000E-02  1.218E+00
   1   13    7     6     5    8.7181E+00 -6.8795E-02   8.7869E+00  0.000E+00  0.000E+00  0.000E+00  1.02656E+03  6.505E-01  1.200E+01  2.400E-01 -9.555E-02
   1   14    9     7     1    1.5000E+02  1.3681E+00   1.4863E+02  0.000E+00  0.000E+00  0.000E+00  1.03987E+03  2.288E+00  5.529E+01  5.593E-01  8.154E-01
   1   13    8     7     2    1.4863E+02  1.9155E+00   1.4672E+02  0.000E+00  0.000E+00  0.000E+00  1.03478E+03  2.279E+00  5.526E+01  6.148E-01  1.039E+00
   1   13    7     7     3    1.4672E+02  1.5874E+00   1.4513E+02  0.000E+00  0.000E+00  0.000E+00  1.02969E+03  2.270E+00  5.521E+01  5.584E-01  9.476E-01
   1   13    6     8     1    1.5392E+02  9.3657E-01   1.5298E+02  0.000E+00  0.000E+00  0.000E+00  1.02472E+03  2.841E+00  4.119E+01  4.198E-01  7.437E-01
   1   13    5     8     2    1.5298E+02  1.9813E-01   1.5278E+02  0.000E+00  0.000E+00  0.000E+00  1.01846E+03  2.837E+00  4.114E+01  4.192E-01  1.575E-01
   1   13    4     8     3    1.5278E+02 -2.3679E+00   1.5515E+02  0.000E+00  0.000E+00  0.000E+00  1.01222E+03  2.845E+00  4.125E+01  4.203E+00 -1.878E-01
   1   13    3     8     4    1.5515E+02 -3.6272E+00   1.5878E+02  0.000E+00  0.000E+00  0.000E+00  1.00599E+03  2.865E+00  4.155E+01  4.234E+00 -2.856E-01
   1   13    2     8     5    1.5878E+02 -2.6194E+00   1.6140E+02  0.000E+00  0.000E+00  0.000E+00  9.99761E+02  2.886E+00  4.185E+01  4.265E+00 -2.047E-01
   1   13    1     8     6    1.6140E+02 -2.0303E+00   1.6343E+02  0.000E+00  0.000E+00  0.000E+00  9.94777E+02  2.902E+00  4.208E+01  2.573E+00 -2.630E-01
   1    8    6     9     1    2.3480E+01  0.0000E+00   2.3480E+01  0.000E+00  0.000E+00  0.000E+00  1.08253E+03  3.782E+00  4.000E+00  0.000E+00  2.261E+00
   1    8    5     9     2    2.3480E+01  0.0000E+00   2.3480E+01  0.000E+00  0.000E+00  0.000E+00  1.08203E+03  3.782E+00  4.000E+00  0.000E+00  2.261E+00



 UBDSV3 SAVING "           GW ET" ON UNIT  61 AT TIME STEP 10, STRESS PERIOD   8
 UBDSV3 SAVING "    UZF RECHARGE" ON UNIT  61 AT TIME STEP 10, STRESS PERIOD   8
 UBDSV3 SAVING " SURFACE LEAKAGE" ON UNIT  61 AT TIME STEP 10, STRESS PERIOD   8
 UBDSV3 SAVING "       HORT+DUNN" ON UNIT  61 AT TIME STEP 10, STRESS PERIOD   8
 UBDSV3 SAVING "  STORAGE CHANGE" ON UNIT  61 AT TIME STEP 10, STRESS PERIOD   8


UNSATURATED ZONE PACKAGE VOLUMETRIC BUDGET FOR  TIME STEP    10 STRESS PERIOD    8
  ------------------------------------------------------------------------------



     CUMULATIVE VOLUMES      L**3       RATES FOR THIS TIME STEP      L**3/T
     ------------------                 ------------------------

           IN:                                      IN:
           ---                                      ---
        INFILTRATION =   237085761.3684          INFILTRATION =          64.6447

          OUT:                                     OUT:
          ----                                     ----
              UZF ET =   192525654.0127                UZF ET =          64.1075
        UZF RECHARGE =       73224.0000          UZF RECHARGE =       0.0000E+00

            IN - OUT =    44486883.3557              IN - OUT =           0.5372

          STORAGE:                                 STORAGE:
          --------                                 --------
      STORAGE CHANGE =    44486880.7542        STORAGE CHANGE =           0.5372

 PERCENT DISCREPANCY IS DIFFERENCE BETWEEN IN-OUT MINUS CHANGE IN STORAGE
 DIVIDED BY THE AVERAGE OF IN AND OUT TIMES 100

 PERCENT DISCREPANCY =           0.00     PERCENT DISCREPANCY =           0.00






 

            AG WELLS      PERIOD    8   STEP  10
 AG WELL      1   LAYER   1   ROW     6   COL     4   RATE    -6.12619    
 AG WELL      2   LAYER   1   ROW     6   COL     5   RATE    -6.12619    
 AG WELL      3   LAYER   1   ROW     7   COL     4   RATE    -6.12619    
 AG WELL      4   LAYER   1   ROW     7   COL     5   RATE    -6.12619    
 AG WELL      5   LAYER   1   ROW     8   COL     4   RATE    -6.12619    
 AG WELL      6   LAYER   1   ROW     8   COL     5   RATE    -6.12619    
 
 

   DIVERSION SEGMENTS     PERIOD    8   STEP  10
 SEGMENT      9   RATE     23.4796    
 
 

        SW IRRIGATION     PERIOD    8   STEP  10
 SEGMENT      9   ROW     6   COL     4   RATE     3.91334    
 SEGMENT      9   ROW     6   COL     5   RATE     3.91334    
 SEGMENT      9   ROW     7   COL     4   RATE     3.91334    
 SEGMENT      9   ROW     7   COL     5   RATE     3.91334    
 SEGMENT      9   ROW     8   COL     4   RATE     3.91334    
 SEGMENT      9   ROW     8   COL     5   RATE     3.91334    
 
 

        GW IRRIGATION     PERIOD    8   STEP  10
 AG WELL      1   ROW     6   COL     4   RATE     6.12619    
 AG WELL      2   ROW     6   COL     5   RATE     6.12619    
 AG WELL      3   ROW     7   COL     4   RATE     6.12619    
 AG WELL      4   ROW     7   COL     5   RATE     6.12619    
 AG WELL      5   ROW     8   COL     4   RATE     6.12619    
 AG WELL      6   ROW     8   COL     5   RATE     6.12619    
 
1
  VOLUMETRIC BUDGET FOR AGRICULTURAL FIELDS AT  END OF TIME STEP   10, STRESS PERIOD   8
  ------------------------------------------------------------------------------

     CUMULATIVE VOLUMES      L**3       RATES FOR THIS TIME STEP      L**3/T
     ------------------                 ------------------------

           IN:                                      IN:
           ---                                      ---
               AG WELLS  =    56031596.0000                 AG WELLS  =          36.7571
      DIVERSION SEGMENTS =   107611368.0000        DIVERSION SEGMENTS =          23.4796
           GW IRRIGATION =           0.0000             GW IRRIGATION =           0.0000
           SW IRRIGATION =           0.0000             SW IRRIGATION =           0.0000
        SYSTEM LOSSES GW =           0.0000          SYSTEM LOSSES GW =           0.0000
        SYSTEM LOSSES SW =           0.0000          SYSTEM LOSSES SW =           0.0000

                TOTAL IN =   163642960.0000                  TOTAL IN =          60.2367

          OUT:                                     OUT:
          ----                                     ----
               AG WELLS  =           0.0000                 AG WELLS  =           0.0000
      DIVERSION SEGMENTS =           0.0000        DIVERSION SEGMENTS =           0.0000
           GW IRRIGATION =    56031596.0000             GW IRRIGATION =          36.7571
           SW IRRIGATION =   107613504.0000             SW IRRIGATION =          23.4801
        SYSTEM LOSSES GW =           0.0000          SYSTEM LOSSES GW =           0.0000
        SYSTEM LOSSES SW =           0.0000          SYSTEM LOSSES SW =           0.0000

               TOTAL OUT =   163645104.0000                 TOTAL OUT =          60.2372

                IN - OUT =       -2144.0000                  IN - OUT =      -4.6921E-04

     PERCENT DISCREPANCY =          -0.00         PERCENT DISCREPANCY =          -0.00



1
  VOLUMETRIC BUDGET FOR ENTIRE MODEL AT END OF TIME STEP   10, STRESS PERIOD   8
  ------------------------------------------------------------------------------

     CUMULATIVE VOLUMES      L**3       RATES FOR THIS TIME STEP      L**3/T
     ------------------                 ------------------------

           IN:                                      IN:
           ---                                      ---
             STORAGE     =    66830032.0000               STORAGE     =          36.5866
       CONSTANT HEAD     =           0.0000         CONSTANT HEAD     =           0.0000
     HEAD DEP BOUNDS     =     4819906.5000       HEAD DEP BOUNDS     =           0.2880
      STREAM LEAKAGE     =   198459120.0000        STREAM LEAKAGE     =          11.9331
        UZF RECHARGE     =       73223.9531          UZF RECHARGE     =           0.0000
               GW ET     =           0.0000                 GW ET     =           0.0000
     SURFACE LEAKAGE     =           0.0000       SURFACE LEAKAGE     =           0.0000
           AG WELLS      =           0.0000             AG WELLS      =           0.0000

                TOTAL IN =   270182272.0000                  TOTAL IN =          48.8077

          OUT:                                     OUT:
          ----                                     ----
             STORAGE     =    36637608.0000               STORAGE     =           1.0494
       CONSTANT HEAD     =           0.0000         CONSTANT HEAD     =           0.0000
     HEAD DEP BOUNDS     =     4830493.0000       HEAD DEP BOUNDS     =           0.2875
      STREAM LEAKAGE     =   172685760.0000        STREAM LEAKAGE     =          10.7136
        UZF RECHARGE     =           0.0000          UZF RECHARGE     =           0.0000
               GW ET     =           0.0000                 GW ET     =           0.0000
     SURFACE LEAKAGE     =           0.0000       SURFACE LEAKAGE     =           0.0000
           AG WELLS      =    56031596.0000             AG WELLS      =          36.7571

               TOTAL OUT =   270185440.0000                 TOTAL OUT =          48.8076

                IN - OUT =       -3168.0000                  IN - OUT =       3.0518E-05

     PERCENT DISCREPANCY =          -0.00         PERCENT DISCREPANCY =           0.00






         TIME SUMMARY AT END OF TIME STEP   10 IN STRESS PERIOD    8
                    SECONDS     MINUTES      HOURS       DAYS        YEARS
                    -----------------------------------------------------------
   TIME STEP LENGTH  87667.      1461.1      24.352      1.0147     2.77799E-03
 STRESS PERIOD TIME 8.76667E+05  14611.      243.52      10.147     2.77799E-02
         TOTAL TIME 1.67431E+07 2.79052E+05  4650.9      193.79     0.53056    
1
 
 SOLVING FOR HEAD 
                                                   Max.-Head-Change                         Max.-Flux-Residual
  Residual-Control   Outer-Iter.   Inner-Iter.     Column Row Layer    Maximum-Head-Change  Column Row Layer    Maximum-Flux-Residual          L2-NORM 
          0                 1           2             5    8     1       0.4479459111E-01       5    8    1         0.2460694190E+01      0.5474048669E+01
          0                 2           2             4    7     1      -0.2971472421E+00       5    8    1        -0.1611984842E+02      0.3932277153E+02
          0                 3           2             4    7     1       0.2023417243E-01       5    8    1         0.1128239439E+01      0.2752790144E+01
          0                 4           2             4    7     1      -0.8051388204E-03       5    8    1        -0.4613291402E-01      0.1126102038E+00
          0                 5           1             4    7     1       0.9927706990E-05       5    8    1         0.5838135194E-03      0.1434968018E-02

    ------------------------------------------------
       NWT REQUIRED            5 OUTER ITERATIONS 
       AND A TOTAL OF          9 INNER ITERATIONS.
    ------------------------------------------------

 NO OUTPUT CONTROL FOR STRESS PERIOD    8   TIME STEP   11
 
 SOLVING FOR HEAD 
                                                   Max.-Head-Change                         Max.-Flux-Residual
  Residual-Control   Outer-Iter.   Inner-Iter.     Column Row Layer    Maximum-Head-Change  Column Row Layer    Maximum-Flux-Residual          L2-NORM 
          0                 1           2             5    8     1       0.5099047751E-01       5    8    1         0.2801083433E+01      0.6216723254E+01
          0                 2           2             5    6     1      -0.1163073005E+00       5    8    1        -0.6406348584E+01      0.1552854762E+02
          0                 3           2             5    6     1       0.7920039035E-02       5    8    1         0.4484409275E+00      0.1088194616E+01
          0                 4           2             5    6     1      -0.3151460331E-03       5    8    1        -0.1834127649E-01      0.4459760840E-01
          0                 5           1             5    6     1       0.3885880235E-05       5    8    1         0.2324404832E-03      0.5825748959E-03

    ------------------------------------------------
       NWT REQUIRED            5 OUTER ITERATIONS 
       AND A TOTAL OF          9 INNER ITERATIONS.
    ------------------------------------------------

 NO OUTPUT CONTROL FOR STRESS PERIOD    8   TIME STEP   12
 
 SOLVING FOR HEAD 
                                                   Max.-Head-Change                         Max.-Flux-Residual
  Residual-Control   Outer-Iter.   Inner-Iter.     Column Row Layer    Maximum-Head-Change  Column Row Layer    Maximum-Flux-Residual          L2-NORM 
          0                 1           2             5    8     1       0.5159038421E-01       5    8    1         0.2832431690E+01      0.6324356695E+01
          0                 2           2             4    7     1      -0.2974770679E+00       5    8    1        -0.1615707294E+02      0.3939441588E+02
          0                 3           2             4    7     1       0.2025663715E-01       5    8    1         0.1130858972E+01      0.2757816468E+01
          0                 4           2             4    7     1      -0.8060326878E-03       5    8    1        -0.4624139141E-01      0.1128154784E+00
          0                 5           1             4    7     1       0.9938729138E-05       5    8    1         0.5852791960E-03      0.1436939247E-02

    ------------------------------------------------
       NWT REQUIRED            5 OUTER ITERATIONS 
       AND A TOTAL OF          9 INNER ITERATIONS.
    ------------------------------------------------

 NO OUTPUT CONTROL FOR STRESS PERIOD    8   TIME STEP   13
 
 SOLVING FOR HEAD 
                                                   Max.-Head-Change                         Max.-Flux-Residual
  Residual-Control   Outer-Iter.   Inner-Iter.     Column Row Layer    Maximum-Head-Change  Column Row Layer    Maximum-Flux-Residual          L2-NORM 
          0                 1           2             5    8     1       0.5745203978E-01       5    8    1         0.3154226608E+01      0.7033286603E+01
          0                 2           2             5    6     1      -0.1169221633E+00       5    8    1        -0.6441661164E+01      0.1559850574E+02
          0                 3           2             5    6     1       0.7961909285E-02       5    8    1         0.4509128223E+00      0.1093071015E+01
          0                 4           2             5    6     1      -0.3168120874E-03       5    8    1        -0.1844237708E-01      0.4479525660E-01
          0                 5           1             5    6     1       0.3906423196E-05       5    8    1         0.2337217197E-03      0.5846449498E-03

    ------------------------------------------------
       NWT REQUIRED            5 OUTER ITERATIONS 
       AND A TOTAL OF          9 INNER ITERATIONS.
    ------------------------------------------------

 NO OUTPUT CONTROL FOR STRESS PERIOD    8   TIME STEP   14
 
 SOLVING FOR HEAD 
                                                   Max.-Head-Change                         Max.-Flux-Residual
  Residual-Control   Outer-Iter.   Inner-Iter.     Column Row Layer    Maximum-Head-Change  Column Row Layer    Maximum-Flux-Residual          L2-NORM 
          0                 1           2             5    8     1       0.5773953535E-01       5    8    1         0.3168207357E+01      0.7108896064E+01
          0                 2           2             4    7     1      -0.2978148051E+00       5    8    1        -0.1619064975E+02      0.3946160750E+02
          0                 3           2             4    7     1       0.2027963963E-01       5    8    1         0.1133221403E+01      0.2762532655E+01
          0                 4           2             4    7     1      -0.8069479574E-03       5    8    1        -0.4633918048E-01      0.1130086118E+00
          0                 5           1             4    7     1       0.9950014857E-05       5    8    1         0.5865976627E-03      0.1439042789E-02

    ------------------------------------------------
       NWT REQUIRED            5 OUTER ITERATIONS 
       AND A TOTAL OF          9 INNER ITERATIONS.
    ------------------------------------------------

 OUTPUT CONTROL FOR STRESS PERIOD    8   TIME STEP   15
    PRINT BUDGET
    SAVE BUDGET
 UBDSV1 SAVING "         STORAGE" ON UNIT 102 AT TIME STEP 15, STRESS PERIOD   8
 UBDSV2 SAVING "   CONSTANT HEAD" ON UNIT 102 AT TIME STEP 15, STRESS PERIOD   8
 UBDSV1 SAVING "FLOW RIGHT FACE " ON UNIT 102 AT TIME STEP 15, STRESS PERIOD   8
 UBDSV1 SAVING "FLOW FRONT FACE " ON UNIT 102 AT TIME STEP 15, STRESS PERIOD   8

  HEAD DEP BOUNDS   PERIOD    8   STEP    15
 BOUNDARY      1   LAYER   1   ROW    13   COL     1   RATE   -0.287325    
 BOUNDARY      2   LAYER   1   ROW    14   COL     9   RATE    0.287959    



 STREAM LISTING     PERIOD      8   STEP       15

 LAYER ROW COL. STREAM  RCH.  FLOW INTO     FLOW TO   FLOW OUT OF   OVRLND.     DIRECT     STREAM       STREAM     STREAM     STREAM   STREAMBED  STREAMBED
                SEG.NO.  NO.  STRM. RCH.    AQUIFER    STRM. RCH.    RUNOFF     PRECIP       ET          HEAD       DEPTH      WIDTH   CONDCTNC.   GRADIENT

   1    1    1     1     1    2.8125E+01  2.5915E-01   2.7866E+01  0.000E+00  0.000E+00  0.000E+00  1.09427E+03  1.223E+00  1.364E+01  6.137E-02  1.408E+00
   1    2    2     1     2    2.7866E+01  4.0087E-01   2.7465E+01  0.000E+00  0.000E+00  0.000E+00  1.08928E+03  1.218E+00  1.358E+01  9.503E-02  1.406E+00
   1    3    3     1     3    2.7465E+01  3.4142E-01   2.7123E+01  0.000E+00  0.000E+00  0.000E+00  1.08363E+03  1.213E+00  1.351E+01  8.103E-02  1.404E+00
   1    3    4     1     4    2.7123E+01  3.1403E-01   2.6809E+01  0.000E+00  0.000E+00  0.000E+00  1.07862E+03  1.209E+00  1.344E+01  7.461E-02  1.403E+00
   1    4    5     2     1    2.4809E+01  3.2739E-01   2.4482E+01  0.000E+00  0.000E+00  0.000E+00  1.07313E+03  1.197E+00  1.200E+01  7.800E-02  1.399E+00
   1    5    6     2     2    2.4482E+01  2.5133E-01   2.4231E+01  0.000E+00  0.000E+00  0.000E+00  1.06770E+03  1.189E+00  1.200E+01  6.000E-02  1.396E+00
   1    6    6     2     3    2.4231E+01  2.5089E-01   2.3980E+01  0.000E+00  0.000E+00  0.000E+00  1.06297E+03  1.181E+00  1.200E+01  6.000E-02  1.394E+00
   1    7    6     2     4    2.3980E+01  2.5044E-01   2.3729E+01  0.000E+00  0.000E+00  0.000E+00  1.05825E+03  1.174E+00  1.200E+01  6.000E-02  1.391E+00
   1    8    6     2     5    2.3729E+01  2.5000E-01   2.3479E+01  0.000E+00  0.000E+00  0.000E+00  1.05353E+03  1.167E+00  1.200E+01  6.000E-02  1.389E+00
   1    3    5     3     1    2.0000E+00  2.8252E-01   1.7175E+00  0.000E+00  0.000E+00  0.000E+00  1.07555E+03  1.909E+00  9.636E+00  7.227E-02  1.955E+00
   1    3    6     3     2    1.7175E+00  2.4905E-01   1.4684E+00  0.000E+00  0.000E+00  0.000E+00  1.07264E+03  1.727E+00  8.909E+00  6.682E-02  1.864E+00
   1    3    7     3     3    1.4684E+00  1.9718E-01   1.2712E+00  0.000E+00  0.000E+00  0.000E+00  1.06987E+03  1.555E+00  8.218E+00  5.547E-02  1.777E+00
   1    4    8     3     4    1.2712E+00  2.2567E-01   1.0456E+00  0.000E+00  0.000E+00  0.000E+00  1.06682E+03  1.364E+00  7.455E+00  6.709E-02  1.682E+00
   1    5    8     3     5    1.0456E+00  1.5790E-01   8.8768E-01  0.000E+00  0.000E+00  0.000E+00  1.06362E+03  1.164E+00  6.655E+00  4.991E-02  1.582E+00
   1    6    8     3     6    8.8768E-01  5.5980E-02   8.3170E-01  0.000E+00  0.000E+00  0.000E+00  1.06158E+03  1.036E+00  6.145E+00  1.844E-02  1.518E+00
   1    5   10     4     1    1.0000E+01  9.0919E-02   9.9091E+00  0.000E+00  0.000E+00  0.000E+00  1.07836E+03  6.368E-01  1.000E+01  2.500E-02  1.212E+00
   1    5    9     4     2    9.9091E+00  1.8158E-01   9.7275E+00  0.000E+00  0.000E+00  0.000E+00  1.07154E+03  6.315E-01  1.000E+01  5.000E-02  1.211E+00
   1    6    8     4     3    9.7275E+00  1.2689E-01   9.6006E+00  0.000E+00  0.000E+00  0.000E+00  1.06381E+03  6.256E-01  1.000E+01  3.500E-02  1.209E+00
   1    6    8     5     1    1.0432E+01  2.2686E-01   1.0205E+01  0.000E+00  0.000E+00  0.000E+00  1.05868E+03  6.790E-01  1.542E+01  6.166E-02  1.226E+00
   1    7    7     5     2    1.0205E+01  2.7894E-01   9.9265E+00  0.000E+00  0.000E+00  0.000E+00  1.05417E+03  6.732E-01  1.519E+01  7.594E-02  1.224E+00
   1    8    7     5     3    9.9265E+00  1.9221E-01   9.7343E+00  0.000E+00  0.000E+00  0.000E+00  1.04992E+03  6.676E-01  1.497E+01  5.241E-02  1.223E+00
   1    8    6     5     4    9.7343E+00  1.3577E-01   9.5985E+00  0.000E+00  0.000E+00  0.000E+00  1.04691E+03  6.637E-01  1.482E+01  3.706E-02  1.221E+00
   1    9    6     6     1    9.5985E+00  2.2097E-01   9.3776E+00  0.000E+00  0.000E+00  0.000E+00  1.04341E+03  6.828E-01  1.200E+01  6.000E-02  1.228E+00
   1   10    7     6     2    9.3776E+00  2.2039E-01   9.1572E+00  0.000E+00  0.000E+00  0.000E+00  1.03885E+03  6.732E-01  1.200E+01  6.000E-02  1.224E+00
   1   11    7     6     3    9.1572E+00  2.1981E-01   8.9374E+00  0.000E+00  0.000E+00  0.000E+00  1.03430E+03  6.636E-01  1.200E+01  6.000E-02  1.221E+00
   1   12    7     6     4    8.9374E+00  2.1923E-01   8.7181E+00  0.000E+00  0.000E+00  0.000E+00  1.02974E+03  6.539E-01  1.200E+01  6.000E-02  1.218E+00
   1   13    7     6     5    8.7181E+00 -6.8097E-02   8.7862E+00  0.000E+00  0.000E+00  0.000E+00  1.02656E+03  6.505E-01  1.200E+01  2.400E-01 -9.458E-02
   1   14    9     7     1    1.5000E+02  1.3681E+00   1.4863E+02  0.000E+00  0.000E+00  0.000E+00  1.03987E+03  2.288E+00  5.529E+01  5.593E-01  8.154E-01
   1   13    8     7     2    1.4863E+02  1.9158E+00   1.4672E+02  0.000E+00  0.000E+00  0.000E+00  1.03478E+03  2.279E+00  5.526E+01  6.148E-01  1.039E+00
   1   13    7     7     3    1.4672E+02  1.5890E+00   1.4513E+02  0.000E+00  0.000E+00  0.000E+00  1.02969E+03  2.270E+00  5.521E+01  5.584E-01  9.485E-01
   1   13    6     8     1    1.5391E+02  9.3790E-01   1.5298E+02  0.000E+00  0.000E+00  0.000E+00  1.02472E+03  2.841E+00  4.119E+01  4.198E-01  7.448E-01
   1   13    5     8     2    1.5298E+02  1.9953E-01   1.5278E+02  0.000E+00  0.000E+00  0.000E+00  1.01846E+03  2.837E+00  4.114E+01  4.192E-01  1.587E-01
   1   13    4     8     3    1.5278E+02 -2.3534E+00   1.5513E+02  0.000E+00  0.000E+00  0.000E+00  1.01222E+03  2.844E+00  4.124E+01  4.203E+00 -1.866E-01
   1   13    3     8     4    1.5513E+02 -3.6124E+00   1.5874E+02  0.000E+00  0.000E+00  0.000E+00  1.00599E+03  2.865E+00  4.154E+01  4.233E+00 -2.844E-01
   1   13    2     8     5    1.5874E+02 -2.6018E+00   1.6134E+02  0.000E+00  0.000E+00  0.000E+00  9.99761E+02  2.886E+00  4.185E+01  4.265E+00 -2.034E-01
   1   13    1     8     6    1.6134E+02 -2.0181E+00   1.6336E+02  0.000E+00  0.000E+00  0.000E+00  9.94777E+02  2.902E+00  4.207E+01  2.573E+00 -2.615E-01
   1    8    6     9     1    2.3479E+01  0.0000E+00   2.3479E+01  0.000E+00  0.000E+00  0.000E+00  1.08253E+03  3.782E+00  4.000E+00  0.000E+00  2.261E+00
   1    8    5     9     2    2.3479E+01  0.0000E+00   2.3479E+01  0.000E+00  0.000E+00  0.000E+00  1.08203E+03  3.782E+00  4.000E+00  0.000E+00  2.261E+00



 UBDSV3 SAVING "           GW ET" ON UNIT  61 AT TIME STEP 15, STRESS PERIOD   8
 UBDSV3 SAVING "    UZF RECHARGE" ON UNIT  61 AT TIME STEP 15, STRESS PERIOD   8
 UBDSV3 SAVING " SURFACE LEAKAGE" ON UNIT  61 AT TIME STEP 15, STRESS PERIOD   8
 UBDSV3 SAVING "       HORT+DUNN" ON UNIT  61 AT TIME STEP 15, STRESS PERIOD   8
 UBDSV3 SAVING "  STORAGE CHANGE" ON UNIT  61 AT TIME STEP 15, STRESS PERIOD   8


UNSATURATED ZONE PACKAGE VOLUMETRIC BUDGET FOR  TIME STEP    15 STRESS PERIOD    8
  ------------------------------------------------------------------------------



     CUMULATIVE VOLUMES      L**3       RATES FOR THIS TIME STEP      L**3/T
     ------------------                 ------------------------

           IN:                                      IN:
           ---                                      ---
        INFILTRATION =   280803385.5901          INFILTRATION =         123.1302

          OUT:                                     OUT:
          ----                                     ----
              UZF ET =   220626106.8594                UZF ET =          64.1075
        UZF RECHARGE =       73224.0000          UZF RECHARGE =       0.0000E+00

            IN - OUT =    60104054.7307              IN - OUT =          59.0227

          STORAGE:                                 STORAGE:
          --------                                 --------
      STORAGE CHANGE =    60104051.2801        STORAGE CHANGE =          59.0227

 PERCENT DISCREPANCY IS DIFFERENCE BETWEEN IN-OUT MINUS CHANGE IN STORAGE
 DIVIDED BY THE AVERAGE OF IN AND OUT TIMES 100

 PERCENT DISCREPANCY =           0.00     PERCENT DISCREPANCY =           0.00






 

            AG WELLS      PERIOD    8   STEP  15
 AG WELL      1   LAYER   1   ROW     6   COL     4   RATE    -15.8738    
 AG WELL      2   LAYER   1   ROW     6   COL     5   RATE    -15.8738    
 AG WELL      3   LAYER   1   ROW     7   COL     4   RATE    -15.8738    
 AG WELL      4   LAYER   1   ROW     7   COL     5   RATE    -15.8738    
 AG WELL      5   LAYER   1   ROW     8   COL     4   RATE    -15.8738    
 AG WELL      6   LAYER   1   ROW     8   COL     5   RATE    -15.8738    
 
 

   DIVERSION SEGMENTS     PERIOD    8   STEP  15
 SEGMENT      9   RATE     23.4793    
 
 

        SW IRRIGATION     PERIOD    8   STEP  15
 SEGMENT      9   ROW     6   COL     4   RATE     3.91329    
 SEGMENT      9   ROW     6   COL     5   RATE     3.91329    
 SEGMENT      9   ROW     7   COL     4   RATE     3.91329    
 SEGMENT      9   ROW     7   COL     5   RATE     3.91329    
 SEGMENT      9   ROW     8   COL     4   RATE     3.91329    
 SEGMENT      9   ROW     8   COL     5   RATE     3.91329    
 
 

        GW IRRIGATION     PERIOD    8   STEP  15
 AG WELL      1   ROW     6   COL     4   RATE     15.8738    
 AG WELL      2   ROW     6   COL     5   RATE     15.8738    
 AG WELL      3   ROW     7   COL     4   RATE     15.8738    
 AG WELL      4   ROW     7   COL     5   RATE     15.8738    
 AG WELL      5   ROW     8   COL     4   RATE     15.8738    
 AG WELL      6   ROW     8   COL     5   RATE     15.8738    
 
1
  VOLUMETRIC BUDGET FOR AGRICULTURAL FIELDS AT  END OF TIME STEP   15, STRESS PERIOD   8
  ------------------------------------------------------------------------------

     CUMULATIVE VOLUMES      L**3       RATES FOR THIS TIME STEP      L**3/T
     ------------------                 ------------------------

           IN:                                      IN:
           ---                                      ---
               AG WELLS  =    87525272.0000                 AG WELLS  =          95.2430
      DIVERSION SEGMENTS =   117903152.0000        DIVERSION SEGMENTS =          23.4793
           GW IRRIGATION =           0.0000             GW IRRIGATION =           0.0000
           SW IRRIGATION =           0.0000             SW IRRIGATION =           0.0000
        SYSTEM LOSSES GW =           0.0000          SYSTEM LOSSES GW =           0.0000
        SYSTEM LOSSES SW =           0.0000          SYSTEM LOSSES SW =           0.0000

                TOTAL IN =   205428416.0000                  TOTAL IN =         118.7223

          OUT:                                     OUT:
          ----                                     ----
               AG WELLS  =           0.0000                 AG WELLS  =           0.0000
      DIVERSION SEGMENTS =           0.0000        DIVERSION SEGMENTS =           0.0000
           GW IRRIGATION =    87525272.0000             GW IRRIGATION =          95.2430
           SW IRRIGATION =   117905488.0000             SW IRRIGATION =          23.4797
        SYSTEM LOSSES GW =           0.0000          SYSTEM LOSSES GW =           0.0000
        SYSTEM LOSSES SW =           0.0000          SYSTEM LOSSES SW =           0.0000

               TOTAL OUT =   205430752.0000                 TOTAL OUT =         118.7227

                IN - OUT =       -2336.0000                  IN - OUT =      -4.7302E-04

     PERCENT DISCREPANCY =          -0.00         PERCENT DISCREPANCY =          -0.00



1
  VOLUMETRIC BUDGET FOR ENTIRE MODEL AT END OF TIME STEP   15, STRESS PERIOD   8
  ------------------------------------------------------------------------------

     CUMULATIVE VOLUMES      L**3       RATES FOR THIS TIME STEP      L**3/T
     ------------------                 ------------------------

           IN:                                      IN:
           ---                                      ---
             STORAGE     =    98208664.0000               STORAGE     =          94.9214
       CONSTANT HEAD     =           0.0000         CONSTANT HEAD     =           0.0000
     HEAD DEP BOUNDS     =     4946128.5000       HEAD DEP BOUNDS     =           0.2880
      STREAM LEAKAGE     =   203691040.0000        STREAM LEAKAGE     =          11.9377
        UZF RECHARGE     =       73223.9531          UZF RECHARGE     =           0.0000
               GW ET     =           0.0000                 GW ET     =           0.0000
     SURFACE LEAKAGE     =           0.0000       SURFACE LEAKAGE     =           0.0000
           AG WELLS      =           0.0000             AG WELLS      =           0.0000

                TOTAL IN =   306919040.0000                  TOTAL IN =         107.1471

          OUT:                                     OUT:
          ----                                     ----
             STORAGE     =    37074960.0000               STORAGE     =           0.9629
       CONSTANT HEAD     =           0.0000         CONSTANT HEAD     =           0.0000
     HEAD DEP BOUNDS     =     4956469.5000       HEAD DEP BOUNDS     =           0.2873
      STREAM LEAKAGE     =   177365456.0000        STREAM LEAKAGE     =          10.6538
        UZF RECHARGE     =           0.0000          UZF RECHARGE     =           0.0000
               GW ET     =           0.0000                 GW ET     =           0.0000
     SURFACE LEAKAGE     =           0.0000       SURFACE LEAKAGE     =           0.0000
           AG WELLS      =    87525272.0000             AG WELLS      =          95.2430

               TOTAL OUT =   306922144.0000                 TOTAL OUT =         107.1470

                IN - OUT =       -3104.0000                  IN - OUT =       6.1035E-05

     PERCENT DISCREPANCY =          -0.00         PERCENT DISCREPANCY =           0.00






         TIME SUMMARY AT END OF TIME STEP   15 IN STRESS PERIOD    8
                    SECONDS     MINUTES      HOURS       DAYS        YEARS
                    -----------------------------------------------------------
   TIME STEP LENGTH  87667.      1461.1      24.352      1.0147     2.77799E-03
 STRESS PERIOD TIME 1.31500E+06  21917.      365.28      15.220     4.16698E-02
         TOTAL TIME 1.71814E+07 2.86357E+05  4772.6      198.86     0.54445    
1
 
 SOLVING FOR HEAD 
                                                   Max.-Head-Change                         Max.-Flux-Residual
  Residual-Control   Outer-Iter.   Inner-Iter.     Column Row Layer    Maximum-Head-Change  Column Row Layer    Maximum-Flux-Residual          L2-NORM 
          0                 1           2             5    8     1       0.6330895488E-01       5    8    1         0.3473766603E+01      0.7787192717E+01
          0                 2           2             5    6     1      -0.1174831217E+00       5    8    1        -0.6473614372E+01      0.1566429488E+02
          0                 3           2             5    6     1       0.8000108891E-02       5    8    1         0.4531495673E+00      0.1097657039E+01
          0                 4           2             5    6     1      -0.3183320836E-03       5    8    1        -0.1853385998E-01      0.4498136089E-01
          0                 5           1             5    6     1       0.3925165518E-05       5    8    1         0.2348811104E-03      0.5869309921E-03

    ------------------------------------------------
       NWT REQUIRED            5 OUTER ITERATIONS 
       AND A TOTAL OF          9 INNER ITERATIONS.
    ------------------------------------------------

 NO OUTPUT CONTROL FOR STRESS PERIOD    8   TIME STEP   16
 
 SOLVING FOR HEAD 
                                                   Max.-Head-Change                         Max.-Flux-Residual
  Residual-Control   Outer-Iter.   Inner-Iter.     Column Row Layer    Maximum-Head-Change  Column Row Layer    Maximum-Flux-Residual          L2-NORM 
          0                 1           2             5    8     1       0.6332302798E-01       5    8    1         0.3472568168E+01      0.7834400287E+01
          0                 2           2             4    7     1      -0.2981585080E+00       5    8    1        -0.1622108508E+02      0.3952483089E+02
          0                 3           2             4    7     1       0.2030304747E-01       5    8    1         0.1135362408E+01      0.2766971924E+01
          0                 4           2             4    7     1      -0.8078793617E-03       5    8    1        -0.4642776412E-01      0.1131907689E+00
          0                 5           1             4    7     1       0.9961499178E-05       5    8    1         0.5877893573E-03      0.1441077791E-02

    ------------------------------------------------
       NWT REQUIRED            5 OUTER ITERATIONS 
       AND A TOTAL OF          9 INNER ITERATIONS.
    ------------------------------------------------

 NO OUTPUT CONTROL FOR STRESS PERIOD    8   TIME STEP   17
 
 SOLVING FOR HEAD 
                                                   Max.-Head-Change                         Max.-Flux-Residual
  Residual-Control   Outer-Iter.   Inner-Iter.     Column Row Layer    Maximum-Head-Change  Column Row Layer    Maximum-Flux-Residual          L2-NORM 
          0                 1           2             5    8     1       0.6863607575E-01       5    8    1         0.3763904137E+01      0.8484985187E+01
          0                 2           2             5    6     1      -0.1179963533E+00       5    8    1        -0.6502627341E+01      0.1572624427E+02
          0                 3           2             5    6     1       0.8035058502E-02       5    8    1         0.4551804999E+00      0.1101975699E+01
          0                 4           2             5    6     1      -0.3197227590E-03       5    8    1        -0.1861692513E-01      0.4515663633E-01
          0                 5           1             5    6     1       0.3942313197E-05       5    8    1         0.2359338082E-03      0.5888992642E-03

    ------------------------------------------------
       NWT REQUIRED            5 OUTER ITERATIONS 
       AND A TOTAL OF          9 INNER ITERATIONS.
    ------------------------------------------------

 NO OUTPUT CONTROL FOR STRESS PERIOD    8   TIME STEP   18
 
 SOLVING FOR HEAD 
                                                   Max.-Head-Change                         Max.-Flux-Residual
  Residual-Control   Outer-Iter.   Inner-Iter.     Column Row Layer    Maximum-Head-Change  Column Row Layer    Maximum-Flux-Residual          L2-NORM 
          0                 1           2             5    8     1       0.6840976521E-01       5    8    1         0.3749379584E+01      0.8506942632E+01
          0                 2           2             4    7     1      -0.2985057329E+00       5    8    1        -0.1624876547E+02      0.3958440785E+02
          0                 3           2             4    7     1       0.2032669440E-01       5    8    1         0.1137309249E+01      0.2771156192E+01
          0                 4           2             4    7     1      -0.8088202830E-03       5    8    1        -0.4650827768E-01      0.1133627021E+00
          0                 5           1             4    7     1       0.9973101451E-05       5    8    1         0.5888700371E-03      0.1443049054E-02

    ------------------------------------------------
       NWT REQUIRED            5 OUTER ITERATIONS 
       AND A TOTAL OF          9 INNER ITERATIONS.
    ------------------------------------------------

 NO OUTPUT CONTROL FOR STRESS PERIOD    8   TIME STEP   19
 
 SOLVING FOR HEAD 
                                                   Max.-Head-Change                         Max.-Flux-Residual
  Residual-Control   Outer-Iter.   Inner-Iter.     Column Row Layer    Maximum-Head-Change  Column Row Layer    Maximum-Flux-Residual          L2-NORM 
          0                 1           2             5    8     1       0.7349741820E-01       5    8    1         0.4028227594E+01      0.9132469999E+01
          0                 2           2             5    6     1      -0.1184672273E+00       5    8    1        -0.6529058915E+01      0.1578465507E+02
          0                 3           2             5    6     1       0.8067123749E-02       5    8    1         0.4570307383E+00      0.1106047944E+01
          0                 4           2             5    6     1      -0.3209986633E-03       5    8    1        -0.1869259985E-01      0.4532182201E-01
          0                 5           1             5    6     1       0.3958045681E-05       5    8    1         0.2368928367E-03      0.5907338527E-03

    ------------------------------------------------
       NWT REQUIRED            5 OUTER ITERATIONS 
       AND A TOTAL OF          9 INNER ITERATIONS.
    ------------------------------------------------

 NO OUTPUT CONTROL FOR STRESS PERIOD    8   TIME STEP   20
 
 SOLVING FOR HEAD 
                                                   Max.-Head-Change                         Max.-Flux-Residual
  Residual-Control   Outer-Iter.   Inner-Iter.     Column Row Layer    Maximum-Head-Change  Column Row Layer    Maximum-Flux-Residual          L2-NORM 
          0                 1           2             5    8     1       0.7305971470E-01       5    8    1         0.4002000134E+01      0.9131956064E+01
          0                 2           2             4    7     1      -0.2988543309E+00       5    8    1        -0.1627402679E+02      0.3964063173E+02
          0                 3           2             4    7     1       0.2035043417E-01       5    8    1         0.1139085612E+01      0.2775104454E+01
          0                 4           2             4    7     1      -0.8097649028E-03       5    8    1        -0.4658170696E-01      0.1135250304E+00
          0                 5           1             4    7     1       0.9984749089E-05       5    8    1         0.5898533291E-03      0.1445007266E-02

    ------------------------------------------------
       NWT REQUIRED            5 OUTER ITERATIONS 
       AND A TOTAL OF          9 INNER ITERATIONS.
    ------------------------------------------------

 NO OUTPUT CONTROL FOR STRESS PERIOD    8   TIME STEP   21
 
 SOLVING FOR HEAD 
                                                   Max.-Head-Change                         Max.-Flux-Residual
  Residual-Control   Outer-Iter.   Inner-Iter.     Column Row Layer    Maximum-Head-Change  Column Row Layer    Maximum-Flux-Residual          L2-NORM 
          0                 1           2             5    8     1       0.7794852317E-01       5    8    1         0.4269846340E+01      0.9734786157E+01
          0                 2           2             5    6     1      -0.1189004526E+00       5    8    1        -0.6553220037E+01      0.1583980312E+02
          0                 3           2             5    6     1       0.8096625266E-02       5    8    1         0.4587220474E+00      0.1109892921E+01
          0                 4           2             5    6     1      -0.3221725540E-03       5    8    1        -0.1876177435E-01      0.4547799691E-01
          0                 5           1             5    6     1       0.3972520238E-05       5    8    1         0.2377694850E-03      0.5925014421E-03

    ------------------------------------------------
       NWT REQUIRED            5 OUTER ITERATIONS 
       AND A TOTAL OF          9 INNER ITERATIONS.
    ------------------------------------------------

 NO OUTPUT CONTROL FOR STRESS PERIOD    8   TIME STEP   22
 
 SOLVING FOR HEAD 
                                                   Max.-Head-Change                         Max.-Flux-Residual
  Residual-Control   Outer-Iter.   Inner-Iter.     Column Row Layer    Maximum-Head-Change  Column Row Layer    Maximum-Flux-Residual          L2-NORM 
          0                 1           2             5    8     1       0.7732420219E-01       5    8    1         0.4233301817E+01      0.9714215348E+01
          0                 2           2             4    7     1      -0.2992025143E+00       5    8    1        -0.1629715624E+02      0.3969376506E+02
          0                 3           2             4    7     1       0.2037414512E-01       5    8    1         0.1140711747E+01      0.2778835248E+01
          0                 4           2             4    7     1      -0.8107083795E-03       5    8    1        -0.4664889478E-01      0.1136784980E+00
          0                 5           1             4    7     1       0.9996382390E-05       5    8    1         0.5907509344E-03      0.1446888061E-02

    ------------------------------------------------
       NWT REQUIRED            5 OUTER ITERATIONS 
       AND A TOTAL OF          9 INNER ITERATIONS.
    ------------------------------------------------

 NO OUTPUT CONTROL FOR STRESS PERIOD    8   TIME STEP   23
 
 SOLVING FOR HEAD 
                                                   Max.-Head-Change                         Max.-Flux-Residual
  Residual-Control   Outer-Iter.   Inner-Iter.     Column Row Layer    Maximum-Head-Change  Column Row Layer    Maximum-Flux-Residual          L2-NORM 
          0                 1           2             5    8     1       0.8203712673E-01       5    8    1         0.4491429533E+01      0.1029645609E+02
          0                 2           2             5    6     1      -0.1193001048E+00       5    8    1        -0.6575377627E+01      0.1589193954E+02
          0                 3           2             5    6     1       0.8123840581E-02       5    8    1         0.4602731107E+00      0.1113528144E+01
          0                 4           2             5    6     1      -0.3232554743E-03       5    8    1        -0.1882521279E-01      0.4562569262E-01
          0                 5           1             5    6     1       0.3985873078E-05       5    8    1         0.2385734356E-03      0.5943090056E-03

    ------------------------------------------------
       NWT REQUIRED            5 OUTER ITERATIONS 
       AND A TOTAL OF          9 INNER ITERATIONS.
    ------------------------------------------------

 NO OUTPUT CONTROL FOR STRESS PERIOD    8   TIME STEP   24
 
 SOLVING FOR HEAD 
                                                   Max.-Head-Change                         Max.-Flux-Residual
  Residual-Control   Outer-Iter.   Inner-Iter.     Column Row Layer    Maximum-Head-Change  Column Row Layer    Maximum-Flux-Residual          L2-NORM 
          0                 1           2             5    8     1       0.8124752093E-01       5    8    1         0.4445759810E+01      0.1025793630E+02
          0                 2           2             4    7     1      -0.2995487296E+00       5    8    1        -0.1631840134E+02      0.3974404621E+02
          0                 3           2             4    7     1       0.2039772156E-01       5    8    1         0.1142205108E+01      0.2782365454E+01
          0                 4           2             4    7     1      -0.8116465056E-03       5    8    1        -0.4671056741E-01      0.1138242998E+00
          0                 5           1             4    7     1       0.1000794971E-04       5    8    1         0.5915729184E-03      0.1450603422E-02

    ------------------------------------------------
       NWT REQUIRED            5 OUTER ITERATIONS 
       AND A TOTAL OF          9 INNER ITERATIONS.
    ------------------------------------------------

 NO OUTPUT CONTROL FOR STRESS PERIOD    8   TIME STEP   25
 
 SOLVING FOR HEAD 
                                                   Max.-Head-Change                         Max.-Flux-Residual
  Residual-Control   Outer-Iter.   Inner-Iter.     Column Row Layer    Maximum-Head-Change  Column Row Layer    Maximum-Flux-Residual          L2-NORM 
          0                 1           2             5    8     1       0.8580462867E-01       5    8    1         0.4695289527E+01      0.1082144739E+02
          0                 2           2             5    6     1      -0.1196697443E+00       5    8    1        -0.6595762922E+01      0.1594127923E+02
          0                 3           2             5    6     1       0.8149012141E-02       5    8    1         0.4617001143E+00      0.1116968486E+01
          0                 4           2             5    6     1      -0.3242570720E-03       5    8    1        -0.1888357717E-01      0.4576534570E-01
          0                 5           1             5    6     1       0.3998223050E-05       5    8    1         0.2393130972E-03      0.5957808389E-03

    ------------------------------------------------
       NWT REQUIRED            5 OUTER ITERATIONS 
       AND A TOTAL OF          9 INNER ITERATIONS.
    ------------------------------------------------

 NO OUTPUT CONTROL FOR STRESS PERIOD    8   TIME STEP   26
 
 SOLVING FOR HEAD 
                                                   Max.-Head-Change                         Max.-Flux-Residual
  Residual-Control   Outer-Iter.   Inner-Iter.     Column Row Layer    Maximum-Head-Change  Column Row Layer    Maximum-Flux-Residual          L2-NORM 
          0                 1           2             5    8     1       0.8486809582E-01       5    8    1         0.4641520352E+01      0.1076698802E+02
          0                 2           2             4    7     1      -0.2998917004E+00       5    8    1        -0.1633797672E+02      0.3979169132E+02
          0                 3           2             4    7     1       0.2042107664E-01       5    8    1         0.1143580828E+01      0.2785709689E+01
          0                 4           2             4    7     1      -0.8125758255E-03       5    8    1        -0.4676735456E-01      0.1139612968E+00
          0                 5           1             4    7     1       0.1001940894E-04       5    8    1         0.5923279386E-03      0.1450354686E-02

    ------------------------------------------------
       NWT REQUIRED            5 OUTER ITERATIONS 
       AND A TOTAL OF          9 INNER ITERATIONS.
    ------------------------------------------------

 NO OUTPUT CONTROL FOR STRESS PERIOD    8   TIME STEP   27
 
 SOLVING FOR HEAD 
                                                   Max.-Head-Change                         Max.-Flux-Residual
  Residual-Control   Outer-Iter.   Inner-Iter.     Column Row Layer    Maximum-Head-Change  Column Row Layer    Maximum-Flux-Residual          L2-NORM 
          0                 1           2             5    8     1       0.8928655224E-01       5    8    1         0.4883410850E+01      0.1131357160E+02
          0                 2           2             5    6     1      -0.1200125340E+00       5    8    1        -0.6614574377E+01      0.1598806805E+02
          0                 3           2             5    6     1       0.8172355320E-02       5    8    1         0.4630169494E+00      0.1120230938E+01
          0                 4           2             5    6     1      -0.3251859168E-03       5    8    1        -0.1893743564E-01      0.4589779930E-01
          0                 5           1             5    6     1       0.4009675895E-05       5    8    1         0.2399956556E-03      0.5973577054E-03

    ------------------------------------------------
       NWT REQUIRED            5 OUTER ITERATIONS 
       AND A TOTAL OF          9 INNER ITERATIONS.
    ------------------------------------------------

 NO OUTPUT CONTROL FOR STRESS PERIOD    8   TIME STEP   28
 
 SOLVING FOR HEAD 
                                                   Max.-Head-Change                         Max.-Flux-Residual
  Residual-Control   Outer-Iter.   Inner-Iter.     Column Row Layer    Maximum-Head-Change  Column Row Layer    Maximum-Flux-Residual          L2-NORM 
          0                 1           2             5    8     1       0.8821940115E-01       5    8    1         0.4822450074E+01      0.1124462739E+02
          0                 2           2             4    7     1      -0.3002303691E+00       5    8    1        -0.1635606904E+02      0.3983689481E+02
          0                 3           2             4    7     1       0.2044413840E-01       5    8    1         0.1144852068E+01      0.2788881398E+01
          0                 4           2             4    7     1      -0.8134934759E-03       5    8    1        -0.4681980383E-01      0.1140917129E+00
          0                 5           1             4    7     1       0.1003072401E-04       5    8    1         0.5930236043E-03      0.1451967704E-02

    ------------------------------------------------
       NWT REQUIRED            5 OUTER ITERATIONS 
       AND A TOTAL OF          9 INNER ITERATIONS.
    ------------------------------------------------

 NO OUTPUT CONTROL FOR STRESS PERIOD    8   TIME STEP   29
 
 SOLVING FOR HEAD 
                                                   Max.-Head-Change                         Max.-Flux-Residual
  Residual-Control   Outer-Iter.   Inner-Iter.     Column Row Layer    Maximum-Head-Change  Column Row Layer    Maximum-Flux-Residual          L2-NORM 
          0                 1           2             5    8     1       0.9251422657E-01       5    8    1         0.5057537156E+01      0.1177556489E+02
          0                 2           2             5    6     1      -0.1203311955E+00       5    8    1        -0.6631986358E+01      0.1603245517E+02
          0                 3           2             5    6     1       0.8194055446E-02       5    8    1         0.4642358213E+00      0.1123326114E+01
          0                 4           2             5    6     1      -0.3260493828E-03       5    8    1        -0.1898728742E-01      0.4602356038E-01
          0                 5           1             5    6     1       0.4020322905E-05       5    8    1         0.2406274280E-03      0.5987708397E-03

    ------------------------------------------------
       NWT REQUIRED            5 OUTER ITERATIONS 
       AND A TOTAL OF          9 INNER ITERATIONS.
    ------------------------------------------------

 NO OUTPUT CONTROL FOR STRESS PERIOD    8   TIME STEP   30



 STREAM LISTING     PERIOD      8   STEP       30

 LAYER ROW COL. STREAM  RCH.  FLOW INTO     FLOW TO   FLOW OUT OF   OVRLND.     DIRECT     STREAM       STREAM     STREAM     STREAM   STREAMBED  STREAMBED
                SEG.NO.  NO.  STRM. RCH.    AQUIFER    STRM. RCH.    RUNOFF     PRECIP       ET          HEAD       DEPTH      WIDTH   CONDCTNC.   GRADIENT

   1    1    1     1     1    2.8125E+01  2.5915E-01   2.7866E+01  0.000E+00  0.000E+00  0.000E+00  1.09427E+03  1.223E+00  1.364E+01  6.137E-02  1.408E+00
   1    2    2     1     2    2.7866E+01  4.0087E-01   2.7465E+01  0.000E+00  0.000E+00  0.000E+00  1.08928E+03  1.218E+00  1.358E+01  9.503E-02  1.406E+00
   1    3    3     1     3    2.7465E+01  3.4142E-01   2.7123E+01  0.000E+00  0.000E+00  0.000E+00  1.08363E+03  1.213E+00  1.351E+01  8.103E-02  1.404E+00
   1    3    4     1     4    2.7123E+01  3.1403E-01   2.6809E+01  0.000E+00  0.000E+00  0.000E+00  1.07862E+03  1.209E+00  1.344E+01  7.461E-02  1.403E+00
   1    4    5     2     1    2.4809E+01  3.2739E-01   2.4482E+01  0.000E+00  0.000E+00  0.000E+00  1.07313E+03  1.197E+00  1.200E+01  7.800E-02  1.399E+00
   1    5    6     2     2    2.4482E+01  2.5133E-01   2.4231E+01  0.000E+00  0.000E+00  0.000E+00  1.06770E+03  1.189E+00  1.200E+01  6.000E-02  1.396E+00
   1    6    6     2     3    2.4231E+01  2.5089E-01   2.3980E+01  0.000E+00  0.000E+00  0.000E+00  1.06297E+03  1.181E+00  1.200E+01  6.000E-02  1.394E+00
   1    7    6     2     4    2.3980E+01  2.5044E-01   2.3729E+01  0.000E+00  0.000E+00  0.000E+00  1.05825E+03  1.174E+00  1.200E+01  6.000E-02  1.391E+00
   1    8    6     2     5    2.3729E+01  2.5000E-01   2.3479E+01  0.000E+00  0.000E+00  0.000E+00  1.05353E+03  1.167E+00  1.200E+01  6.000E-02  1.389E+00
   1    3    5     3     1    2.0000E+00  2.8252E-01   1.7175E+00  0.000E+00  0.000E+00  0.000E+00  1.07555E+03  1.909E+00  9.636E+00  7.227E-02  1.955E+00
   1    3    6     3     2    1.7175E+00  2.4905E-01   1.4684E+00  0.000E+00  0.000E+00  0.000E+00  1.07264E+03  1.727E+00  8.909E+00  6.682E-02  1.864E+00
   1    3    7     3     3    1.4684E+00  1.9718E-01   1.2712E+00  0.000E+00  0.000E+00  0.000E+00  1.06987E+03  1.555E+00  8.218E+00  5.547E-02  1.777E+00
   1    4    8     3     4    1.2712E+00  2.2567E-01   1.0456E+00  0.000E+00  0.000E+00  0.000E+00  1.06682E+03  1.364E+00  7.455E+00  6.709E-02  1.682E+00
   1    5    8     3     5    1.0456E+00  1.5790E-01   8.8768E-01  0.000E+00  0.000E+00  0.000E+00  1.06362E+03  1.164E+00  6.655E+00  4.991E-02  1.582E+00
   1    6    8     3     6    8.8768E-01  5.5980E-02   8.3170E-01  0.000E+00  0.000E+00  0.000E+00  1.06158E+03  1.036E+00  6.145E+00  1.844E-02  1.518E+00
   1    5   10     4     1    1.0000E+01  9.0919E-02   9.9091E+00  0.000E+00  0.000E+00  0.000E+00  1.07836E+03  6.368E-01  1.000E+01  2.500E-02  1.212E+00
   1    5    9     4     2    9.9091E+00  1.8158E-01   9.7275E+00  0.000E+00  0.000E+00  0.000E+00  1.07154E+03  6.315E-01  1.000E+01  5.000E-02  1.211E+00
   1    6    8     4     3    9.7275E+00  1.2689E-01   9.6006E+00  0.000E+00  0.000E+00  0.000E+00  1.06381E+03  6.256E-01  1.000E+01  3.500E-02  1.209E+00
   1    6    8     5     1    1.0432E+01  2.2686E-01   1.0205E+01  0.000E+00  0.000E+00  0.000E+00  1.05868E+03  6.790E-01  1.542E+01  6.166E-02  1.226E+00
   1    7    7     5     2    1.0205E+01  2.7894E-01   9.9265E+00  0.000E+00  0.000E+00  0.000E+00  1.05417E+03  6.732E-01  1.519E+01  7.594E-02  1.224E+00
   1    8    7     5     3    9.9265E+00  1.9221E-01   9.7343E+00  0.000E+00  0.000E+00  0.000E+00  1.04992E+03  6.676E-01  1.497E+01  5.241E-02  1.223E+00
   1    8    6     5     4    9.7343E+00  1.3577E-01   9.5985E+00  0.000E+00  0.000E+00  0.000E+00  1.04691E+03  6.637E-01  1.482E+01  3.706E-02  1.221E+00
   1    9    6     6     1    9.5985E+00  2.2097E-01   9.3776E+00  0.000E+00  0.000E+00  0.000E+00  1.04341E+03  6.828E-01  1.200E+01  6.000E-02  1.228E+00
   1   10    7     6     2    9.3776E+00  2.2039E-01   9.1572E+00  0.000E+00  0.000E+00  0.000E+00  1.03885E+03  6.732E-01  1.200E+01  6.000E-02  1.224E+00
   1   11    7     6     3    9.1572E+00  2.1981E-01   8.9374E+00  0.000E+00  0.000E+00  0.000E+00  1.03430E+03  6.636E-01  1.200E+01  6.000E-02  1.221E+00
   1   12    7     6     4    8.9374E+00  2.1923E-01   8.7181E+00  0.000E+00  0.000E+00  0.000E+00  1.02974E+03  6.539E-01  1.200E+01  6.000E-02  1.218E+00
   1   13    7     6     5    8.7181E+00 -6.6461E-02   8.7846E+00  0.000E+00  0.000E+00  0.000E+00  1.02656E+03  6.505E-01  1.200E+01  2.400E-01 -9.231E-02
   1   14    9     7     1    1.5000E+02  1.3683E+00   1.4863E+02  0.000E+00  0.000E+00  0.000E+00  1.03987E+03  2.288E+00  5.529E+01  5.593E-01  8.155E-01
   1   13    8     7     2    1.4863E+02  1.9166E+00   1.4672E+02  0.000E+00  0.000E+00  0.000E+00  1.03478E+03  2.279E+00  5.526E+01  6.148E-01  1.039E+00
   1   13    7     7     3    1.4672E+02  1.5928E+00   1.4512E+02  0.000E+00  0.000E+00  0.000E+00  1.02969E+03  2.270E+00  5.521E+01  5.584E-01  9.508E-01
   1   13    6     8     1    1.5391E+02  9.4122E-01   1.5297E+02  0.000E+00  0.000E+00  0.000E+00  1.02472E+03  2.841E+00  4.119E+01  4.198E-01  7.474E-01
   1   13    5     8     2    1.5297E+02  2.0295E-01   1.5276E+02  0.000E+00  0.000E+00  0.000E+00  1.01846E+03  2.837E+00  4.113E+01  4.192E-01  1.614E-01
   1   13    4     8     3    1.5276E+02 -2.3310E+00   1.5509E+02  0.000E+00  0.000E+00  0.000E+00  1.01222E+03  2.844E+00  4.124E+01  4.203E+00 -1.849E-01
   1   13    3     8     4    1.5509E+02 -3.5897E+00   1.5868E+02  0.000E+00  0.000E+00  0.000E+00  1.00599E+03  2.865E+00  4.154E+01  4.233E+00 -2.827E-01
   1   13    2     8     5    1.5868E+02 -2.5745E+00   1.6126E+02  0.000E+00  0.000E+00  0.000E+00  9.99761E+02  2.886E+00  4.184E+01  4.264E+00 -2.013E-01
   1   13    1     8     6    1.6126E+02 -1.9942E+00   1.6325E+02  0.000E+00  0.000E+00  0.000E+00  9.94776E+02  2.901E+00  4.206E+01  2.572E+00 -2.585E-01
   1    8    6     9     1    2.3479E+01  0.0000E+00   2.3479E+01  0.000E+00  0.000E+00  0.000E+00  1.08253E+03  3.782E+00  4.000E+00  0.000E+00  2.261E+00
   1    8    5     9     2    2.3479E+01  0.0000E+00   2.3479E+01  0.000E+00  0.000E+00  0.000E+00  1.08203E+03  3.782E+00  4.000E+00  0.000E+00  2.261E+00





UNSATURATED ZONE PACKAGE VOLUMETRIC BUDGET FOR  TIME STEP    30 STRESS PERIOD    8
  ------------------------------------------------------------------------------



     CUMULATIVE VOLUMES      L**3       RATES FOR THIS TIME STEP      L**3/T
     ------------------                 ------------------------

           IN:                                      IN:
           ---                                      ---
        INFILTRATION =   401701793.2551          INFILTRATION =          64.6447

          OUT:                                     OUT:
          ----                                     ----
              UZF ET =   304927465.3994                UZF ET =          64.1075
        UZF RECHARGE =       73224.0000          UZF RECHARGE =       0.0000E+00

            IN - OUT =    96701103.8557              IN - OUT =           0.5372

          STORAGE:                                 STORAGE:
          --------                                 --------
      STORAGE CHANGE =    96701097.7413        STORAGE CHANGE =           0.5372

 PERCENT DISCREPANCY IS DIFFERENCE BETWEEN IN-OUT MINUS CHANGE IN STORAGE
 DIVIDED BY THE AVERAGE OF IN AND OUT TIMES 100

 PERCENT DISCREPANCY =           0.00     PERCENT DISCREPANCY =           0.00






1
  VOLUMETRIC BUDGET FOR AGRICULTURAL FIELDS AT  END OF TIME STEP   30, STRESS PERIOD   8
  ------------------------------------------------------------------------------

     CUMULATIVE VOLUMES      L**3       RATES FOR THIS TIME STEP      L**3/T
     ------------------                 ------------------------

           IN:                                      IN:
           ---                                      ---
               AG WELLS  =   171751904.0000                 AG WELLS  =          36.7575
      DIVERSION SEGMENTS =   148778432.0000        DIVERSION SEGMENTS =          23.4793
           GW IRRIGATION =           0.0000             GW IRRIGATION =           0.0000
           SW IRRIGATION =           0.0000             SW IRRIGATION =           0.0000
        SYSTEM LOSSES GW =           0.0000          SYSTEM LOSSES GW =           0.0000
        SYSTEM LOSSES SW =           0.0000          SYSTEM LOSSES SW =           0.0000

                TOTAL IN =   320530336.0000                  TOTAL IN =          60.2367

          OUT:                                     OUT:
          ----                                     ----
               AG WELLS  =           0.0000                 AG WELLS  =           0.0000
      DIVERSION SEGMENTS =           0.0000        DIVERSION SEGMENTS =           0.0000
           GW IRRIGATION =   171751904.0000             GW IRRIGATION =          36.7575
           SW IRRIGATION =   148781312.0000             SW IRRIGATION =          23.4797
        SYSTEM LOSSES GW =           0.0000          SYSTEM LOSSES GW =           0.0000
        SYSTEM LOSSES SW =           0.0000          SYSTEM LOSSES SW =           0.0000

               TOTAL OUT =   320533216.0000                 TOTAL OUT =          60.2372

                IN - OUT =       -2880.0000                  IN - OUT =      -4.6921E-04

     PERCENT DISCREPANCY =          -0.00         PERCENT DISCREPANCY =          -0.00



1
  VOLUMETRIC BUDGET FOR ENTIRE MODEL AT END OF TIME STEP   30, STRESS PERIOD   8
  ------------------------------------------------------------------------------

     CUMULATIVE VOLUMES      L**3       RATES FOR THIS TIME STEP      L**3/T
     ------------------                 ------------------------

           IN:                                      IN:
           ---                                      ---
             STORAGE     =   181758992.0000               STORAGE     =          36.1090
       CONSTANT HEAD     =           0.0000         CONSTANT HEAD     =           0.0000
     HEAD DEP BOUNDS     =     5324800.0000       HEAD DEP BOUNDS     =           0.2880
      STREAM LEAKAGE     =   219397536.0000        STREAM LEAKAGE     =          11.9492
        UZF RECHARGE     =       73223.9531          UZF RECHARGE     =           0.0000
               GW ET     =           0.0000                 GW ET     =           0.0000
     SURFACE LEAKAGE     =           0.0000       SURFACE LEAKAGE     =           0.0000
           AG WELLS      =           0.0000             AG WELLS      =           0.0000

                TOTAL IN =   406554560.0000                  TOTAL IN =          48.3462

          OUT:                                     OUT:
          ----                                     ----
             STORAGE     =    38174756.0000               STORAGE     =           0.7459
       CONSTANT HEAD     =           0.0000         CONSTANT HEAD     =           0.0000
     HEAD DEP BOUNDS     =     5334013.5000       HEAD DEP BOUNDS     =           0.2870
      STREAM LEAKAGE     =   191296896.0000        STREAM LEAKAGE     =          10.5558
        UZF RECHARGE     =           0.0000          UZF RECHARGE     =           0.0000
               GW ET     =           0.0000                 GW ET     =           0.0000
     SURFACE LEAKAGE     =           0.0000       SURFACE LEAKAGE     =           0.0000
           AG WELLS      =   171751904.0000             AG WELLS      =          36.7575

               TOTAL OUT =   406557568.0000                 TOTAL OUT =          48.3462

                IN - OUT =       -3008.0000                  IN - OUT =       2.6703E-05

     PERCENT DISCREPANCY =          -0.00         PERCENT DISCREPANCY =           0.00






         TIME SUMMARY AT END OF TIME STEP   30 IN STRESS PERIOD    8
                    SECONDS     MINUTES      HOURS       DAYS        YEARS
                    -----------------------------------------------------------
   TIME STEP LENGTH  87667.      1461.1      24.352      1.0147     2.77799E-03
 STRESS PERIOD TIME 2.63000E+06  43833.      730.56      30.440     8.33397E-02
         TOTAL TIME 1.84964E+07 3.08274E+05  5137.9      214.08     0.58612    
1
1
                            STRESS PERIOD NO.    9, LENGTH =   2630000.    
                            -----------------------------------------------

                              NUMBER OF TIME STEPS =    30

                               MULTIPLIER FOR DELT =     1.000

                            INITIAL TIME STEP SIZE =   87666.66    

 REUSING NON-PARAMETER GHB CELLS FROM LAST STRESS PERIOD

      2 GHB CELLS

 REUSING STREAM SEGMENT DATA FROM LAST STRESS PERIOD



            AREAL INFILTRATION RATE
 READING ON UNIT   19 WITH FORMAT: (10F4.0)            

            1           2           3           4           5           6           7           8           9          10
 ........................................................................................................................
   1   1.2000E-09   0.000       0.000       0.000       0.000       0.000       0.000       0.000       0.000       0.000    
   2   2.1000E-09  2.0000E-09  8.0000E-10  8.5000E-09   0.000       0.000       0.000       0.000       0.000       0.000    
   3   5.0000E-10  1.1000E-09  8.8000E-09  5.5000E-09   0.000       0.000       0.000       0.000       0.000       0.000    
   4   8.5000E-09  1.1000E-09  1.1000E-09  1.1000E-09  2.0000E-09   0.000       0.000       0.000       0.000       0.000    
   5   8.5000E-09  1.1000E-09  1.1000E-09  1.1000E-09  1.1000E-09   0.000       0.000       0.000       0.000       0.000    
   6   8.5000E-09  5.2000E-09  2.1000E-09  1.1000E-09  1.5000E-09   0.000       0.000       0.000       0.000       0.000    
   7   8.5000E-09  5.2000E-09  2.1000E-09  1.2000E-09  2.0000E-09   0.000       0.000       0.000       0.000       0.000    
   8   5.0000E-10  5.2000E-09  2.1000E-09  1.2000E-09  5.0000E-09   0.000       0.000       0.000       0.000       0.000    
   9   5.0000E-10  5.2000E-09  2.1000E-09  1.2000E-09  5.0000E-09   0.000       0.000       0.000       0.000       0.000    
  10   5.0000E-10  5.2000E-09  2.1000E-09  1.2000E-09  5.8000E-09   0.000       0.000       0.000       0.000       0.000    
  11   1.0000E-10  1.1000E-09  1.1000E-09  1.2000E-09  5.0000E-09   0.000       0.000       0.000       0.000       0.000    
  12   1.1000E-09  1.1000E-09  1.1000E-09  1.1000E-09  2.0000E-09   0.000       0.000       0.000       0.000       0.000    
  13   1.1000E-09  2.2000E-09  2.2000E-09  2.1000E-09  1.0000E-09   0.000       0.000       0.000       0.000       0.000    
  14   2.0000E-10  5.5000E-09  5.5000E-09  5.2000E-09  1.0000E-09   0.000       0.000       0.000       0.000       0.000    
  15    0.000      8.8000E-09  8.8000E-09   0.000       0.000       0.000       0.000       0.000       0.000       0.000    

                  ET RATE =  3.250000E-07

 USING ET EXTINCTION DEPTH FROM PREVIOUS STRESS PERIOD. CURRENT PERIOD IS:       9

 USING EXTINCTION WATER CONTENT FROM PREVIOUS STRESS PERIOD. CURRENT PERIOD IS:       9

 USING AIR ENTRY PRESSURE FROM PREVIOUS STRESS PERIOD. CURRENT PERIOD IS:       9

 USING ROOT PRESSURE HEAD FROM PREVIOUS STRESS PERIOD. CURRENT PERIOD IS:       9

 USING ROOT ACTIVITY FROM PREVIOUS STRESS PERIOD. CURRENT PERIOD IS:       9

 PROCESSING AG STRESS PERIOD DATA

 READING AG STRESS PERIOD DATA

 READING IRRIGATION SEGMENT

 READING IRRIGATION WELL

 READING SUPPLEMENTAL WELL

 END PROCESSING AG STRESS PERIOD DATA OPTIONS
 
 SOLVING FOR HEAD 
                                                   Max.-Head-Change                         Max.-Flux-Residual
  Residual-Control   Outer-Iter.   Inner-Iter.     Column Row Layer    Maximum-Head-Change  Column Row Layer    Maximum-Flux-Residual          L2-NORM 
          0                 1           2             5    8     1       0.9132799568E-01       5    8    1         0.4990164427E+01      0.1168517391E+02
          0                 2           2             4    7     1      -0.2458152157E+00       5    8    1        -0.1343443190E+02      0.3268017955E+02
          0                 3           2             4    7     1       0.1673882348E-01       5    8    1         0.9403871007E+00      0.2288164981E+01
          0                 4           2             4    7     1      -0.6660547872E-03       5    8    1        -0.3846118134E-01      0.9363062499E-01
          0                 5           1             4    7     1       0.8212742267E-05       5    8    1         0.4873688476E-03      0.1195069346E-02

    ------------------------------------------------
       NWT REQUIRED            5 OUTER ITERATIONS 
       AND A TOTAL OF          9 INNER ITERATIONS.
    ------------------------------------------------

 NO OUTPUT CONTROL FOR STRESS PERIOD    9   TIME STEP    1
 
 SOLVING FOR HEAD 
                                                   Max.-Head-Change                         Max.-Flux-Residual
  Residual-Control   Outer-Iter.   Inner-Iter.     Column Row Layer    Maximum-Head-Change  Column Row Layer    Maximum-Flux-Residual          L2-NORM 
          0                 1           2             5    8     1       0.9392303670E-01       5    8    1         0.5131475998E+01      0.1202347038E+02
          0                 2           2             5    8     1      -0.4020512041E-01       5    8    1        -0.2223917870E+01      0.5261782382E+01
          0                 3           2             4    7     1       0.2567860538E-01       5    8    1         0.1433920405E+01      0.3507233178E+01
          0                 4           2             4    7     1      -0.2401501248E-02       5    8    1        -0.1368838085E+00      0.3405948805E+00
          0                 5           2             4    7     1      -0.1379392776E-02       4    7    1        -0.7822342101E-01      0.1916436542E+00
          0                 6           2             4    7     1      -0.1270907356E-02       5    8    1        -0.7207152180E-01      0.1765373919E+00
          0                 7           2             4    7     1      -0.1004168400E-02       5    8    1        -0.5694458564E-01      0.1394842118E+00
          0                 8           1             4    7     1       0.1241113519E-04       4    7    1         0.7233022652E-03      0.1771892341E-02

    ------------------------------------------------
       NWT REQUIRED            8 OUTER ITERATIONS 
       AND A TOTAL OF         15 INNER ITERATIONS.
    ------------------------------------------------

 NO OUTPUT CONTROL FOR STRESS PERIOD    9   TIME STEP    2
 
 SOLVING FOR HEAD 
                                                   Max.-Head-Change                         Max.-Flux-Residual
  Residual-Control   Outer-Iter.   Inner-Iter.     Column Row Layer    Maximum-Head-Change  Column Row Layer    Maximum-Flux-Residual          L2-NORM 
          0                 1           2             5    8     1       0.8980518821E-01       5    8    1         0.4902285219E+01      0.1161120515E+02
          0                 2           2             5    7     1      -0.1746842525E+00       5    8    1        -0.9582904207E+01      0.2327595064E+02
          0                 3           2             5    7     1       0.1189521537E-01       5    8    1         0.6707960504E+00      0.1630136920E+01
          0                 4           2             5    7     1      -0.4733223887E-03       5    8    1        -0.2743563162E-01      0.6673577999E-01
          0                 5           1             5    7     1       0.5836276732E-05       5    8    1         0.3476939578E-03      0.8575905179E-03

    ------------------------------------------------
       NWT REQUIRED            5 OUTER ITERATIONS 
       AND A TOTAL OF          9 INNER ITERATIONS.
    ------------------------------------------------

 NO OUTPUT CONTROL FOR STRESS PERIOD    9   TIME STEP    3
 
 SOLVING FOR HEAD 
                                                   Max.-Head-Change                         Max.-Flux-Residual
  Residual-Control   Outer-Iter.   Inner-Iter.     Column Row Layer    Maximum-Head-Change  Column Row Layer    Maximum-Flux-Residual          L2-NORM 
          0                 1           2             5    8     1       0.9047871213E-01       5    8    1         0.4937783946E+01      0.1172726384E+02
          0                 2           2             5    6     1      -0.4910543713E-01       5    8    1        -0.2712647948E+01      0.6486775702E+01
          0                 3           2             4    7     1       0.1854131407E-01       5    8    1         0.1038053476E+01      0.2533605251E+01
          0                 4           2             4    7     1      -0.7377779382E-03       5    8    1        -0.4245463699E-01      0.1040146758E+00
          0                 5           1             4    7     1       0.9097119335E-05       5    8    1         0.5379021495E-03      0.1381448232E-02

    ------------------------------------------------
       NWT REQUIRED            5 OUTER ITERATIONS 
       AND A TOTAL OF          9 INNER ITERATIONS.
    ------------------------------------------------

 NO OUTPUT CONTROL FOR STRESS PERIOD    9   TIME STEP    4
 
 SOLVING FOR HEAD 
                                                   Max.-Head-Change                         Max.-Flux-Residual
  Residual-Control   Outer-Iter.   Inner-Iter.     Column Row Layer    Maximum-Head-Change  Column Row Layer    Maximum-Flux-Residual          L2-NORM 
          0                 1           2             5    8     1       0.8697231219E-01       5    8    1         0.4742645977E+01      0.1137807431E+02
          0                 2           2             4    7     1      -0.1844082860E+00       5    8    1        -0.1009063580E+02      0.2454643587E+02
          0                 3           2             4    7     1       0.1255736690E-01       5    8    1         0.7063364415E+00      0.1719021491E+01
          0                 4           2             4    7     1      -0.4996701085E-03       5    8    1        -0.2888923951E-01      0.7036780597E-01
          0                 5           1             4    7     1       0.6161148095E-05       5    8    1         0.3661156466E-03      0.9029988354E-03

    ------------------------------------------------
       NWT REQUIRED            5 OUTER ITERATIONS 
       AND A TOTAL OF          9 INNER ITERATIONS.
    ------------------------------------------------

 NO OUTPUT CONTROL FOR STRESS PERIOD    9   TIME STEP    5
 
 SOLVING FOR HEAD 
                                                   Max.-Head-Change                         Max.-Flux-Residual
  Residual-Control   Outer-Iter.   Inner-Iter.     Column Row Layer    Maximum-Head-Change  Column Row Layer    Maximum-Flux-Residual          L2-NORM 
          0                 1           2             5    8     1       0.8814873532E-01       5    8    1         0.4806159019E+01      0.1154183094E+02
          0                 2           2             5    6     1      -0.4750710733E-01       5    8    1        -0.2622768283E+01      0.6289386814E+01
          0                 3           2             4    7     1       0.1984718453E-01       5    8    1         0.1108479673E+01      0.2708655846E+01
          0                 4           2             4    7     1      -0.7897400430E-03       5    8    1        -0.4533354948E-01      0.1112330534E+00
          0                 5           1             4    7     1       0.9737834115E-05       5    8    1         0.5742825338E-03      0.1483246795E-02

    ------------------------------------------------
       NWT REQUIRED            5 OUTER ITERATIONS 
       AND A TOTAL OF          9 INNER ITERATIONS.
    ------------------------------------------------

 NO OUTPUT CONTROL FOR STRESS PERIOD    9   TIME STEP    6
 
 SOLVING FOR HEAD 
                                                   Max.-Head-Change                         Max.-Flux-Residual
  Residual-Control   Outer-Iter.   Inner-Iter.     Column Row Layer    Maximum-Head-Change  Column Row Layer    Maximum-Flux-Residual          L2-NORM 
          0                 1           2             5    8     1       0.8474632084E-01       5    8    1         0.4616983326E+01      0.1120067318E+02
          0                 2           2             4    7     1      -0.1817407281E+00       5    8    1        -0.9925542128E+01      0.2416526365E+02
          0                 3           2             4    7     1       0.1237571779E-01       5    8    1         0.6947802082E+00      0.1692347249E+01
          0                 4           2             4    7     1      -0.4924421125E-03       5    8    1        -0.2841658740E-01      0.6927738549E-01
          0                 5           1             4    7     1       0.6072023491E-05       5    8    1         0.3601256872E-03      0.8892947264E-03

    ------------------------------------------------
       NWT REQUIRED            5 OUTER ITERATIONS 
       AND A TOTAL OF          9 INNER ITERATIONS.
    ------------------------------------------------

 NO OUTPUT CONTROL FOR STRESS PERIOD    9   TIME STEP    7
 
 SOLVING FOR HEAD 
                                                   Max.-Head-Change                         Max.-Flux-Residual
  Residual-Control   Outer-Iter.   Inner-Iter.     Column Row Layer    Maximum-Head-Change  Column Row Layer    Maximum-Flux-Residual          L2-NORM 
          0                 1           2             5    8     1       0.8601740281E-01       5    8    1         0.4685924592E+01      0.1136787140E+02
          0                 2           2             5    6     1      -0.4772003431E-01       5    8    1        -0.2632785844E+01      0.6334062068E+01
          0                 3           2             4    7     1       0.1948682882E-01       5    8    1         0.1087140179E+01      0.2657663310E+01
          0                 4           2             4    7     1      -0.7754010987E-03       5    8    1        -0.4446051319E-01      0.1091298160E+00
          0                 5           1             4    7     1       0.9561028666E-05       5    8    1         0.5632017933E-03      0.1454018351E-02

    ------------------------------------------------
       NWT REQUIRED            5 OUTER ITERATIONS 
       AND A TOTAL OF          9 INNER ITERATIONS.
    ------------------------------------------------

 NO OUTPUT CONTROL FOR STRESS PERIOD    9   TIME STEP    8
 
 SOLVING FOR HEAD 
                                                   Max.-Head-Change                         Max.-Flux-Residual
  Residual-Control   Outer-Iter.   Inner-Iter.     Column Row Layer    Maximum-Head-Change  Column Row Layer    Maximum-Flux-Residual          L2-NORM 
          0                 1           2             5    6     1       0.8286496225E-01       5    8    1         0.4507537234E+01      0.1104492423E+02
          0                 2           2             4    7     1      -0.1827225311E+00       5    8    1        -0.9958948488E+01      0.2426679756E+02
          0                 3           2             4    7     1       0.1244257012E-01       5    8    1         0.6971186251E+00      0.1699445899E+01
          0                 4           2             4    7     1      -0.4951022522E-03       5    8    1        -0.2851222891E-01      0.6956707746E-01
          0                 5           1             4    7     1       0.6104824348E-05       5    8    1         0.3613377535E-03      0.8928493638E-03

    ------------------------------------------------
       NWT REQUIRED            5 OUTER ITERATIONS 
       AND A TOTAL OF          9 INNER ITERATIONS.
    ------------------------------------------------

 NO OUTPUT CONTROL FOR STRESS PERIOD    9   TIME STEP    9
 
 SOLVING FOR HEAD 
                                                   Max.-Head-Change                         Max.-Flux-Residual
  Residual-Control   Outer-Iter.   Inner-Iter.     Column Row Layer    Maximum-Head-Change  Column Row Layer    Maximum-Flux-Residual          L2-NORM 
          0                 1           2             5    6     1       0.8425975506E-01       5    8    1         0.4586452104E+01      0.1122540084E+02
          0                 2           2             5    6     1      -0.4744631987E-01       5    8    1        -0.2616404958E+01      0.6310914710E+01
          0                 3           2             4    7     1       0.1960536880E-01       5    8    1         0.1092427490E+01      0.2671965287E+01
          0                 4           2             4    7     1      -0.7801179613E-03       5    8    1        -0.4467624018E-01      0.1097187953E+00
          0                 5           1             4    7     1       0.9619189345E-05       5    6    1         0.5659259778E-03      0.1462213477E-02

    ------------------------------------------------
       NWT REQUIRED            5 OUTER ITERATIONS 
       AND A TOTAL OF          9 INNER ITERATIONS.
    ------------------------------------------------

 NO OUTPUT CONTROL FOR STRESS PERIOD    9   TIME STEP   10
 
 SOLVING FOR HEAD 
                                                   Max.-Head-Change                         Max.-Flux-Residual
  Residual-Control   Outer-Iter.   Inner-Iter.     Column Row Layer    Maximum-Head-Change  Column Row Layer    Maximum-Flux-Residual          L2-NORM 
          0                 1           2             5    6     1       0.8136845069E-01       5    8    1         0.4415604599E+01      0.1091486525E+02
          0                 2           2             4    7     1      -0.1826219601E+00       5    8    1        -0.9936853254E+01      0.2422953469E+02
          0                 3           2             4    7     1       0.1243571915E-01       5    8    1         0.6955692050E+00      0.1696831537E+01
          0                 4           2             4    7     1      -0.4948296574E-03       5    8    1        -0.2844858440E-01      0.6945965992E-01
          0                 5           1             4    7     1       0.6101462894E-05       5    6    1         0.3605309275E-03      0.8914252279E-03

    ------------------------------------------------
       NWT REQUIRED            5 OUTER ITERATIONS 
       AND A TOTAL OF          9 INNER ITERATIONS.
    ------------------------------------------------

 NO OUTPUT CONTROL FOR STRESS PERIOD    9   TIME STEP   11
 
 SOLVING FOR HEAD 
                                                   Max.-Head-Change                         Max.-Flux-Residual
  Residual-Control   Outer-Iter.   Inner-Iter.     Column Row Layer    Maximum-Head-Change  Column Row Layer    Maximum-Flux-Residual          L2-NORM 
          0                 1           2             5    6     1       0.8286982668E-01       5    8    1         0.4501458067E+01      0.1110336576E+02
          0                 2           2             5    6     1      -0.4734522757E-01       5    8    1        -0.2609775516E+01      0.6309269413E+01
          0                 3           2             4    7     1       0.1958289529E-01       5    8    1         0.1090093755E+01      0.2667327340E+01
          0                 4           2             4    7     1      -0.7792237337E-03       5    8    1        -0.4458042398E-01      0.1095268222E+00
          0                 5           1             4    7     1       0.9608163500E-05       5    6    1         0.5647146490E-03      0.1459725650E-02

    ------------------------------------------------
       NWT REQUIRED            5 OUTER ITERATIONS 
       AND A TOTAL OF          9 INNER ITERATIONS.
    ------------------------------------------------

 NO OUTPUT CONTROL FOR STRESS PERIOD    9   TIME STEP   12
 
 SOLVING FOR HEAD 
                                                   Max.-Head-Change                         Max.-Flux-Residual
  Residual-Control   Outer-Iter.   Inner-Iter.     Column Row Layer    Maximum-Head-Change  Column Row Layer    Maximum-Flux-Residual          L2-NORM 
          0                 1           2             5    6     1       0.8008639386E-01       5    6    1         0.4342079444E+01      0.1080451587E+02
          0                 2           2             4    7     1      -0.1828175012E+00       5    6    1        -0.9933254617E+01      0.2423402619E+02
          0                 3           2             4    7     1       0.1244903204E-01       5    6    1         0.6953198876E+00      0.1697138742E+01
          0                 4           2             4    7     1      -0.4953594033E-03       5    6    1        -0.2843866123E-01      0.6947163510E-01
          0                 5           1             4    7     1       0.6107995151E-05       5    6    1         0.3604054327E-03      0.8915053001E-03

    ------------------------------------------------
       NWT REQUIRED            5 OUTER ITERATIONS 
       AND A TOTAL OF          9 INNER ITERATIONS.
    ------------------------------------------------

 NO OUTPUT CONTROL FOR STRESS PERIOD    9   TIME STEP   13
 
 SOLVING FOR HEAD 
                                                   Max.-Head-Change                         Max.-Flux-Residual
  Residual-Control   Outer-Iter.   Inner-Iter.     Column Row Layer    Maximum-Head-Change  Column Row Layer    Maximum-Flux-Residual          L2-NORM 
          0                 1           2             5    6     1       0.8168765197E-01       5    8    1         0.4429766731E+01      0.1100058701E+02
          0                 2           2             5    6     1      -0.4722043330E-01       5    8    1        -0.2602062316E+01      0.6302853466E+01
          0                 3           2             4    7     1       0.1960020807E-01       5    8    1         0.1090098026E+01      0.2668283468E+01
          0                 4           2             4    7     1      -0.7799126455E-03       5    6    1        -0.4458107914E-01      0.1095655394E+00
          0                 5           1             4    7     1       0.9616657697E-05       5    6    1         0.5647102307E-03      0.1460328476E-02

    ------------------------------------------------
       NWT REQUIRED            5 OUTER ITERATIONS 
       AND A TOTAL OF          9 INNER ITERATIONS.
    ------------------------------------------------

 NO OUTPUT CONTROL FOR STRESS PERIOD    9   TIME STEP   14
 
 SOLVING FOR HEAD 
                                                   Max.-Head-Change                         Max.-Flux-Residual
  Residual-Control   Outer-Iter.   Inner-Iter.     Column Row Layer    Maximum-Head-Change  Column Row Layer    Maximum-Flux-Residual          L2-NORM 
          0                 1           2             5    6     1       0.7899482173E-01       5    6    1         0.4280600257E+01      0.1071158503E+02
          0                 2           2             4    7     1      -0.1829102528E+00       5    6    1        -0.9926014966E+01      0.2422756912E+02
          0                 3           2             4    7     1       0.1245534580E-01       5    6    1         0.6948131257E+00      0.1696680490E+01
          0                 4           2             4    7     1      -0.4956106439E-03       5    6    1        -0.2841793456E-01      0.6945238233E-01
          0                 5           1             4    7     1       0.6111092698E-05       5    6    1         0.3601427511E-03      0.8911787646E-03

    ------------------------------------------------
       NWT REQUIRED            5 OUTER ITERATIONS 
       AND A TOTAL OF          9 INNER ITERATIONS.
    ------------------------------------------------

 NO OUTPUT CONTROL FOR STRESS PERIOD    9   TIME STEP   15
 
 SOLVING FOR HEAD 
                                                   Max.-Head-Change                         Max.-Flux-Residual
  Residual-Control   Outer-Iter.   Inner-Iter.     Column Row Layer    Maximum-Head-Change  Column Row Layer    Maximum-Flux-Residual          L2-NORM 
          0                 1           2             5    6     1       0.8068010447E-01       5    6    1         0.4372542705E+01      0.1091373291E+02
          0                 2           2             5    6     1      -0.4712540641E-01       5    6    1        -0.2596498412E+01      0.6299109500E+01
          0                 3           2             4    7     1       0.1960487276E-01       5    6    1         0.1089550239E+01      0.2667688605E+01
          0                 4           2             4    7     1      -0.7800982743E-03       5    6    1        -0.4455852990E-01      0.1095405213E+00
          0                 5           1             4    7     1       0.9618946609E-05       5    6    1         0.5644060689E-03      0.1459835817E-02

    ------------------------------------------------
       NWT REQUIRED            5 OUTER ITERATIONS 
       AND A TOTAL OF          9 INNER ITERATIONS.
    ------------------------------------------------

 NO OUTPUT CONTROL FOR STRESS PERIOD    9   TIME STEP   16
 
 SOLVING FOR HEAD 
                                                   Max.-Head-Change                         Max.-Flux-Residual
  Residual-Control   Outer-Iter.   Inner-Iter.     Column Row Layer    Maximum-Head-Change  Column Row Layer    Maximum-Flux-Residual          L2-NORM 
          0                 1           2             5    6     1       0.7806649420E-01       5    6    1         0.4228242659E+01      0.1063338246E+02
          0                 2           2             4    7     1      -0.1830181544E+00       5    6    1        -0.9921096981E+01      0.2422534381E+02
          0                 3           2             4    7     1       0.1246269142E-01       5    6    1         0.6944685799E+00      0.1696518623E+01
          0                 4           2             4    7     1      -0.4959029432E-03       5    6    1        -0.2840381407E-01      0.6944548946E-01
          0                 5           1             4    7     1       0.6114696887E-05       5    6    1         0.3599618817E-03      0.8912433416E-03

    ------------------------------------------------
       NWT REQUIRED            5 OUTER ITERATIONS 
       AND A TOTAL OF          9 INNER ITERATIONS.
    ------------------------------------------------

 NO OUTPUT CONTROL FOR STRESS PERIOD    9   TIME STEP   17
 
 SOLVING FOR HEAD 
                                                   Max.-Head-Change                         Max.-Flux-Residual
  Residual-Control   Outer-Iter.   Inner-Iter.     Column Row Layer    Maximum-Head-Change  Column Row Layer    Maximum-Flux-Residual          L2-NORM 
          0                 1           2             5    6     1       0.7982530517E-01       5    6    1         0.4324290802E+01      0.1084070801E+02
          0                 2           2             5    6     1      -0.4704152534E-01       5    6    1        -0.2591627643E+01      0.6295702271E+01
          0                 3           2             4    7     1       0.1961227097E-01       5    6    1         0.1089255299E+01      0.2667612232E+01
          0                 4           2             4    7     1      -0.7803926706E-03       5    6    1        -0.4454622382E-01      0.1095369056E+00
          0                 5           1             4    7     1       0.9622576785E-05       5    6    1         0.5642336223E-03      0.1459629485E-02

    ------------------------------------------------
       NWT REQUIRED            5 OUTER ITERATIONS 
       AND A TOTAL OF          9 INNER ITERATIONS.
    ------------------------------------------------

 NO OUTPUT CONTROL FOR STRESS PERIOD    9   TIME STEP   18
 
 SOLVING FOR HEAD 
                                                   Max.-Head-Change                         Max.-Flux-Residual
  Residual-Control   Outer-Iter.   Inner-Iter.     Column Row Layer    Maximum-Head-Change  Column Row Layer    Maximum-Flux-Residual          L2-NORM 
          0                 1           2             5    6     1       0.7728007697E-01       5    6    1         0.4183808915E+01      0.1056788187E+02
          0                 2           2             4    7     1      -0.1831086224E+00       5    6    1        -0.9916561281E+01      0.2422280277E+02
          0                 3           2             4    7     1       0.1246885011E-01       5    6    1         0.6941488131E+00      0.1696333480E+01
          0                 4           2             4    7     1      -0.4961480121E-03       5    6    1        -0.2839051516E-01      0.6943713268E-01
          0                 5           1             4    7     1       0.6117718599E-05       5    6    1         0.3597783561E-03      0.8908570052E-03

    ------------------------------------------------
       NWT REQUIRED            5 OUTER ITERATIONS 
       AND A TOTAL OF          9 INNER ITERATIONS.
    ------------------------------------------------

 NO OUTPUT CONTROL FOR STRESS PERIOD    9   TIME STEP   19
 
 SOLVING FOR HEAD 
                                                   Max.-Head-Change                         Max.-Flux-Residual
  Residual-Control   Outer-Iter.   Inner-Iter.     Column Row Layer    Maximum-Head-Change  Column Row Layer    Maximum-Flux-Residual          L2-NORM 
          0                 1           2             5    6     1       0.7910209305E-01       5    6    1         0.4283384403E+01      0.1077952976E+02
          0                 2           2             5    6     1      -0.4697154073E-01       5    6    1        -0.2587550533E+01      0.6293162732E+01
          0                 3           2             4    7     1       0.1961804344E-01       5    6    1         0.1088956550E+01      0.2667444409E+01
          0                 4           2             4    7     1      -0.7806223755E-03       5    6    1        -0.4453378862E-01      0.1095301162E+00
          0                 5           1             4    7     1       0.9625409081E-05       5    6    1         0.5640613335E-03      0.1459751561E-02

    ------------------------------------------------
       NWT REQUIRED            5 OUTER ITERATIONS 
       AND A TOTAL OF          9 INNER ITERATIONS.
    ------------------------------------------------

 NO OUTPUT CONTROL FOR STRESS PERIOD    9   TIME STEP   20
 
 SOLVING FOR HEAD 
                                                   Max.-Head-Change                         Max.-Flux-Residual
  Residual-Control   Outer-Iter.   Inner-Iter.     Column Row Layer    Maximum-Head-Change  Column Row Layer    Maximum-Flux-Residual          L2-NORM 
          0                 1           2             5    6     1       0.7661634776E-01       5    6    1         0.4146225057E+01      0.1051329785E+02
          0                 2           2             4    7     1      -0.1831926879E+00       5    6    1        -0.9912830716E+01      0.2422115575E+02
          0                 3           2             4    7     1       0.1247457303E-01       5    6    1         0.6938846465E+00      0.1696210427E+01
          0                 4           2             4    7     1      -0.4963757402E-03       5    6    1        -0.2837941683E-01      0.6943148677E-01
          0                 5           1             4    7     1       0.6120526811E-05       5    6    1         0.3596177526E-03      0.8907375714E-03

    ------------------------------------------------
       NWT REQUIRED            5 OUTER ITERATIONS 
       AND A TOTAL OF          9 INNER ITERATIONS.
    ------------------------------------------------

 NO OUTPUT CONTROL FOR STRESS PERIOD    9   TIME STEP   21
 
 SOLVING FOR HEAD 
                                                   Max.-Head-Change                         Max.-Flux-Residual
  Residual-Control   Outer-Iter.   Inner-Iter.     Column Row Layer    Maximum-Head-Change  Column Row Layer    Maximum-Flux-Residual          L2-NORM 
          0                 1           2             5    6     1       0.7849340349E-01       5    6    1         0.4248874314E+01      0.1072860219E+02
          0                 2           2             5    7     1      -0.4692977649E-01       5    6    1        -0.2584095395E+01      0.6291211773E+01
          0                 3           2             4    7     1       0.1962354707E-01       5    6    1         0.1088718742E+01      0.2667354603E+01
          0                 4           2             4    7     1      -0.7808413820E-03       5    6    1        -0.4452386834E-01      0.1095255571E+00
          0                 5           1             4    7     1       0.9628109422E-05       5    6    1         0.5639224360E-03      0.1459663541E-02

    ------------------------------------------------
       NWT REQUIRED            5 OUTER ITERATIONS 
       AND A TOTAL OF          9 INNER ITERATIONS.
    ------------------------------------------------

 NO OUTPUT CONTROL FOR STRESS PERIOD    9   TIME STEP   22
 
 SOLVING FOR HEAD 
                                                   Max.-Head-Change                         Max.-Flux-Residual
  Residual-Control   Outer-Iter.   Inner-Iter.     Column Row Layer    Maximum-Head-Change  Column Row Layer    Maximum-Flux-Residual          L2-NORM 
          0                 1           2             5    6     1       0.7605905230E-01       5    6    1         0.4114579859E+01      0.1046814307E+02
          0                 2           2             4    7     1      -0.1832684026E+00       5    6    1        -0.9909657763E+01      0.2421994476E+02
          0                 3           2             4    7     1       0.1247972746E-01       5    6    1         0.6936598198E+00      0.1696117671E+01
          0                 4           2             4    7     1      -0.4965808471E-03       5    6    1        -0.2836995756E-01      0.6942698250E-01
          0                 5           1             4    7     1       0.6123055882E-05       5    6    1         0.3594799559E-03      0.8905567673E-03

    ------------------------------------------------
       NWT REQUIRED            5 OUTER ITERATIONS 
       AND A TOTAL OF          9 INNER ITERATIONS.
    ------------------------------------------------

 NO OUTPUT CONTROL FOR STRESS PERIOD    9   TIME STEP   23
 
 SOLVING FOR HEAD 
                                                   Max.-Head-Change                         Max.-Flux-Residual
  Residual-Control   Outer-Iter.   Inner-Iter.     Column Row Layer    Maximum-Head-Change  Column Row Layer    Maximum-Flux-Residual          L2-NORM 
          0                 1           2             5    6     1       0.7798372822E-01       5    6    1         0.4219883134E+01      0.1068651744E+02
          0                 2           2             5    7     1      -0.4693209671E-01       5    6    1        -0.2581197855E+01      0.6289822937E+01
          0                 3           2             4    7     1       0.1962847553E-01       5    6    1         0.1088514721E+01      0.2667310456E+01
          0                 4           2             4    7     1      -0.7810375002E-03       5    6    1        -0.4451534952E-01      0.1095661839E+00
          0                 5           1             4    7     1       0.9630527710E-05       5    6    1         0.5638026259E-03      0.1464610028E-02

    ------------------------------------------------
       NWT REQUIRED            5 OUTER ITERATIONS 
       AND A TOTAL OF          9 INNER ITERATIONS.
    ------------------------------------------------

 NO OUTPUT CONTROL FOR STRESS PERIOD    9   TIME STEP   24
 
 SOLVING FOR HEAD 
                                                   Max.-Head-Change                         Max.-Flux-Residual
  Residual-Control   Outer-Iter.   Inner-Iter.     Column Row Layer    Maximum-Head-Change  Column Row Layer    Maximum-Flux-Residual          L2-NORM 
          0                 1           2             5    6     1       0.7559429706E-01       5    6    1         0.4088092587E+01      0.1043114283E+02
          0                 2           2             4    7     1      -0.1833375729E+00       5    6    1        -0.9907011079E+01      0.2421921948E+02
          0                 3           2             4    7     1       0.1248443640E-01       5    6    1         0.6934721001E+00      0.1696059541E+01
          0                 4           2             4    7     1      -0.4967682260E-03       5    6    1        -0.2836204211E-01      0.6942400637E-01
          0                 5           1             4    7     1       0.6125366524E-05       5    6    1         0.3593635006E-03      0.8905031468E-03

    ------------------------------------------------
       NWT REQUIRED            5 OUTER ITERATIONS 
       AND A TOTAL OF          9 INNER ITERATIONS.
    ------------------------------------------------

 NO OUTPUT CONTROL FOR STRESS PERIOD    9   TIME STEP   25
 
 SOLVING FOR HEAD 
                                                   Max.-Head-Change                         Max.-Flux-Residual
  Residual-Control   Outer-Iter.   Inner-Iter.     Column Row Layer    Maximum-Head-Change  Column Row Layer    Maximum-Flux-Residual          L2-NORM 
          0                 1           2             5    6     1       0.7756060936E-01       5    6    1         0.4195715057E+01      0.1065209409E+02
          0                 2           2             5    7     1      -0.4693579204E-01       5    6    1        -0.2578780943E+01      0.6288909448E+01
          0                 3           2             4    7     1       0.1963299435E-01       5    6    1         0.1088345655E+01      0.2667252233E+01
          0                 4           2             4    7     1      -0.7812173176E-03       5    6    1        -0.4450827737E-01      0.1095207068E+00
          0                 5           1             4    7     1       0.9632744820E-05       5    6    1         0.5637023223E-03      0.1459731569E-02

    ------------------------------------------------
       NWT REQUIRED            5 OUTER ITERATIONS 
       AND A TOTAL OF          9 INNER ITERATIONS.
    ------------------------------------------------

 NO OUTPUT CONTROL FOR STRESS PERIOD    9   TIME STEP   26
 
 SOLVING FOR HEAD 
                                                   Max.-Head-Change                         Max.-Flux-Residual
  Residual-Control   Outer-Iter.   Inner-Iter.     Column Row Layer    Maximum-Head-Change  Column Row Layer    Maximum-Flux-Residual          L2-NORM 
          0                 1           2             5    6     1       0.7521009520E-01       5    6    1         0.4066093128E+01      0.1040118728E+02
          0                 2           2             4    7     1      -0.1834007933E+00       5    6    1        -0.9904811257E+01      0.2421889015E+02
          0                 3           2             4    7     1       0.1248874031E-01       5    6    1         0.6933158928E+00      0.1696029945E+01
          0                 4           2             4    7     1      -0.4969394882E-03       5    6    1        -0.2835543818E-01      0.6942250926E-01
          0                 5           1             4    7     1       0.6127478004E-05       5    6    1         0.3592652006E-03      0.8904403430E-03

    ------------------------------------------------
       NWT REQUIRED            5 OUTER ITERATIONS 
       AND A TOTAL OF          9 INNER ITERATIONS.
    ------------------------------------------------

 NO OUTPUT CONTROL FOR STRESS PERIOD    9   TIME STEP   27
 
 SOLVING FOR HEAD 
                                                   Max.-Head-Change                         Max.-Flux-Residual
  Residual-Control   Outer-Iter.   Inner-Iter.     Column Row Layer    Maximum-Head-Change  Column Row Layer    Maximum-Flux-Residual          L2-NORM 
          0                 1           2             5    6     1       0.7721246689E-01       5    6    1         0.4175723641E+01      0.1062430892E+02
          0                 2           2             5    7     1      -0.4694085055E-01       5    6    1        -0.2576781925E+01      0.6288412945E+01
          0                 3           2             4    7     1       0.1963713195E-01       5    6    1         0.1088205722E+01      0.2667243093E+01
          0                 4           2             4    7     1      -0.7813819645E-03       5    6    1        -0.4450241156E-01      0.1095199584E+00
          0                 5           1             4    7     1       0.9634775089E-05       5    6    1         0.5636183182E-03      0.1459648379E-02

    ------------------------------------------------
       NWT REQUIRED            5 OUTER ITERATIONS 
       AND A TOTAL OF          9 INNER ITERATIONS.
    ------------------------------------------------

 NO OUTPUT CONTROL FOR STRESS PERIOD    9   TIME STEP   28
 
 SOLVING FOR HEAD 
                                                   Max.-Head-Change                         Max.-Flux-Residual
  Residual-Control   Outer-Iter.   Inner-Iter.     Column Row Layer    Maximum-Head-Change  Column Row Layer    Maximum-Flux-Residual          L2-NORM 
          0                 1           2             5    6     1       0.7489613612E-01       5    6    1         0.4048005729E+01      0.1037737739E+02
          0                 2           2             4    7     1      -0.1834588129E+00       5    6    1        -0.9903002631E+01      0.2421891361E+02
          0                 3           2             4    7     1       0.1249269019E-01       5    6    1         0.6931872718E+00      0.1696027024E+01
          0                 4           2             4    7     1      -0.4970966627E-03       5    6    1        -0.2834998224E-01      0.6942195592E-01
          0                 5           1             4    7     1       0.6129415973E-05       5    6    1         0.3591827895E-03      0.8904257129E-03

    ------------------------------------------------
       NWT REQUIRED            5 OUTER ITERATIONS 
       AND A TOTAL OF          9 INNER ITERATIONS.
    ------------------------------------------------

 NO OUTPUT CONTROL FOR STRESS PERIOD    9   TIME STEP   29
 
 SOLVING FOR HEAD 
                                                   Max.-Head-Change                         Max.-Flux-Residual
  Residual-Control   Outer-Iter.   Inner-Iter.     Column Row Layer    Maximum-Head-Change  Column Row Layer    Maximum-Flux-Residual          L2-NORM 
          0                 1           2             5    6     1       0.7692972515E-01       5    6    1         0.4159374357E+01      0.1060234129E+02
          0                 2           2             5    7     1      -0.4694725787E-01       5    6    1        -0.2575147109E+01      0.6288281686E+01
          0                 3           2             4    7     1       0.1964144398E-01       5    6    1         0.1088091284E+01      0.2667253924E+01
          0                 4           2             4    7     1      -0.7815535524E-03       5    6    1        -0.4449760140E-01      0.1095225933E+00
          0                 5           1             4    7     1       0.9636890713E-05       5    6    1         0.5635485486E-03      0.1461242587E-02

    ------------------------------------------------
       NWT REQUIRED            5 OUTER ITERATIONS 
       AND A TOTAL OF          9 INNER ITERATIONS.
    ------------------------------------------------

 NO OUTPUT CONTROL FOR STRESS PERIOD    9   TIME STEP   30



 STREAM LISTING     PERIOD      9   STEP       30

 LAYER ROW COL. STREAM  RCH.  FLOW INTO     FLOW TO   FLOW OUT OF   OVRLND.     DIRECT     STREAM       STREAM     STREAM     STREAM   STREAMBED  STREAMBED
                SEG.NO.  NO.  STRM. RCH.    AQUIFER    STRM. RCH.    RUNOFF     PRECIP       ET          HEAD       DEPTH      WIDTH   CONDCTNC.   GRADIENT

   1    1    1     1     1    2.2875E+01  2.3514E-01   2.2640E+01  0.000E+00  0.000E+00  0.000E+00  1.09419E+03  1.146E+00  1.260E+01  5.672E-02  1.382E+00
   1    2    2     1     2    2.2640E+01  3.6351E-01   2.2276E+01  0.000E+00  0.000E+00  0.000E+00  1.08920E+03  1.141E+00  1.254E+01  8.778E-02  1.380E+00
   1    3    3     1     3    2.2276E+01  3.0939E-01   2.1967E+01  0.000E+00  0.000E+00  0.000E+00  1.08355E+03  1.136E+00  1.247E+01  7.481E-02  1.379E+00
   1    3    4     1     4    2.1967E+01  2.8439E-01   2.1682E+01  0.000E+00  0.000E+00  0.000E+00  1.07854E+03  1.131E+00  1.240E+01  6.885E-02  1.377E+00
   1    4    5     2     1    1.9682E+01  3.1521E-01   1.9367E+01  0.000E+00  0.000E+00  0.000E+00  1.07298E+03  1.041E+00  1.200E+01  7.800E-02  1.347E+00
   1    5    6     2     2    1.9367E+01  2.4193E-01   1.9125E+01  0.000E+00  0.000E+00  0.000E+00  1.06754E+03  1.032E+00  1.200E+01  6.000E-02  1.344E+00
   1    6    6     2     3    1.9125E+01  2.4146E-01   1.8884E+01  0.000E+00  0.000E+00  0.000E+00  1.06282E+03  1.024E+00  1.200E+01  6.000E-02  1.341E+00
   1    7    6     2     4    1.8884E+01  2.4099E-01   1.8643E+01  0.000E+00  0.000E+00  0.000E+00  1.05809E+03  1.017E+00  1.200E+01  6.000E-02  1.339E+00
   1    8    6     2     5    1.8643E+01  2.4052E-01   1.8402E+01  0.000E+00  0.000E+00  0.000E+00  1.05337E+03  1.009E+00  1.200E+01  6.000E-02  1.336E+00
   1    3    5     3     1    2.0000E+00  2.8252E-01   1.7175E+00  0.000E+00  0.000E+00  0.000E+00  1.07555E+03  1.909E+00  9.636E+00  7.227E-02  1.955E+00
   1    3    6     3     2    1.7175E+00  2.4905E-01   1.4684E+00  0.000E+00  0.000E+00  0.000E+00  1.07264E+03  1.727E+00  8.909E+00  6.682E-02  1.864E+00
   1    3    7     3     3    1.4684E+00  1.9718E-01   1.2712E+00  0.000E+00  0.000E+00  0.000E+00  1.06987E+03  1.555E+00  8.218E+00  5.547E-02  1.777E+00
   1    4    8     3     4    1.2712E+00  2.2567E-01   1.0456E+00  0.000E+00  0.000E+00  0.000E+00  1.06682E+03  1.364E+00  7.455E+00  6.709E-02  1.682E+00
   1    5    8     3     5    1.0456E+00  1.5790E-01   8.8768E-01  0.000E+00  0.000E+00  0.000E+00  1.06362E+03  1.164E+00  6.655E+00  4.991E-02  1.582E+00
   1    6    8     3     6    8.8768E-01  5.5980E-02   8.3170E-01  0.000E+00  0.000E+00  0.000E+00  1.06158E+03  1.036E+00  6.145E+00  1.844E-02  1.518E+00
   1    5   10     4     1    1.0000E+01  9.0919E-02   9.9091E+00  0.000E+00  0.000E+00  0.000E+00  1.07836E+03  6.368E-01  1.000E+01  2.500E-02  1.212E+00
   1    5    9     4     2    9.9091E+00  1.8158E-01   9.7275E+00  0.000E+00  0.000E+00  0.000E+00  1.07154E+03  6.315E-01  1.000E+01  5.000E-02  1.211E+00
   1    6    8     4     3    9.7275E+00  1.2689E-01   9.6006E+00  0.000E+00  0.000E+00  0.000E+00  1.06381E+03  6.256E-01  1.000E+01  3.500E-02  1.209E+00
   1    6    8     5     1    1.0432E+01  2.2686E-01   1.0205E+01  0.000E+00  0.000E+00  0.000E+00  1.05868E+03  6.790E-01  1.542E+01  6.166E-02  1.226E+00
   1    7    7     5     2    1.0205E+01  2.7894E-01   9.9265E+00  0.000E+00  0.000E+00  0.000E+00  1.05417E+03  6.732E-01  1.519E+01  7.594E-02  1.224E+00
   1    8    7     5     3    9.9265E+00  1.9221E-01   9.7343E+00  0.000E+00  0.000E+00  0.000E+00  1.04992E+03  6.676E-01  1.497E+01  5.241E-02  1.223E+00
   1    8    6     5     4    9.7343E+00  1.3577E-01   9.5985E+00  0.000E+00  0.000E+00  0.000E+00  1.04691E+03  6.637E-01  1.482E+01  3.706E-02  1.221E+00
   1    9    6     6     1    9.5985E+00  2.2097E-01   9.3776E+00  0.000E+00  0.000E+00  0.000E+00  1.04341E+03  6.828E-01  1.200E+01  6.000E-02  1.228E+00
   1   10    7     6     2    9.3776E+00  2.2039E-01   9.1572E+00  0.000E+00  0.000E+00  0.000E+00  1.03885E+03  6.732E-01  1.200E+01  6.000E-02  1.224E+00
   1   11    7     6     3    9.1572E+00  2.1981E-01   8.9374E+00  0.000E+00  0.000E+00  0.000E+00  1.03430E+03  6.636E-01  1.200E+01  6.000E-02  1.221E+00
   1   12    7     6     4    8.9374E+00  2.1923E-01   8.7181E+00  0.000E+00  0.000E+00  0.000E+00  1.02974E+03  6.539E-01  1.200E+01  6.000E-02  1.218E+00
   1   13    7     6     5    8.7181E+00 -6.4386E-02   8.7825E+00  0.000E+00  0.000E+00  0.000E+00  1.02656E+03  6.504E-01  1.200E+01  2.400E-01 -8.942E-02
   1   14    9     7     1    1.5000E+02  1.3685E+00   1.4863E+02  0.000E+00  0.000E+00  0.000E+00  1.03987E+03  2.288E+00  5.529E+01  5.593E-01  8.156E-01
   1   13    8     7     2    1.4863E+02  1.9184E+00   1.4671E+02  0.000E+00  0.000E+00  0.000E+00  1.03478E+03  2.279E+00  5.526E+01  6.148E-01  1.040E+00
   1   13    7     7     3    1.4671E+02  1.5976E+00   1.4512E+02  0.000E+00  0.000E+00  0.000E+00  1.02969E+03  2.270E+00  5.521E+01  5.584E-01  9.537E-01
   1   13    6     8     1    1.5390E+02  9.4604E-01   1.5295E+02  0.000E+00  0.000E+00  0.000E+00  1.02472E+03  2.841E+00  4.119E+01  4.198E-01  7.513E-01
   1   13    5     8     2    1.5295E+02  2.0789E-01   1.5274E+02  0.000E+00  0.000E+00  0.000E+00  1.01846E+03  2.837E+00  4.113E+01  4.192E-01  1.653E-01
   1   13    4     8     3    1.5274E+02 -2.3118E+00   1.5506E+02  0.000E+00  0.000E+00  0.000E+00  1.01222E+03  2.844E+00  4.124E+01  4.202E+00 -1.834E-01
   1   13    3     8     4    1.5506E+02 -3.5757E+00   1.5863E+02  0.000E+00  0.000E+00  0.000E+00  1.00599E+03  2.864E+00  4.153E+01  4.232E+00 -2.816E-01
   1   13    2     8     5    1.5863E+02 -2.5603E+00   1.6119E+02  0.000E+00  0.000E+00  0.000E+00  9.99760E+02  2.885E+00  4.184E+01  4.263E+00 -2.002E-01
   1   13    1     8     6    1.6119E+02 -1.9763E+00   1.6317E+02  0.000E+00  0.000E+00  0.000E+00  9.94776E+02  2.901E+00  4.206E+01  2.571E+00 -2.562E-01
   1    8    6     9     1    1.8402E+01  0.0000E+00   1.8402E+01  0.000E+00  0.000E+00  0.000E+00  1.08202E+03  3.267E+00  4.000E+00  0.000E+00  2.089E+00
   1    8    5     9     2    1.8402E+01  0.0000E+00   1.8402E+01  0.000E+00  0.000E+00  0.000E+00  1.08152E+03  3.267E+00  4.000E+00  0.000E+00  2.089E+00





UNSATURATED ZONE PACKAGE VOLUMETRIC BUDGET FOR  TIME STEP    30 STRESS PERIOD    9
  ------------------------------------------------------------------------------



     CUMULATIVE VOLUMES      L**3       RATES FOR THIS TIME STEP      L**3/T
     ------------------                 ------------------------

           IN:                                      IN:
           ---                                      ---
        INFILTRATION =   547938034.7102          INFILTRATION =          30.3185

          OUT:                                     OUT:
          ----                                     ----
              UZF ET =   444029258.4795                UZF ET =          52.9209
        UZF RECHARGE =       73224.0000          UZF RECHARGE =       0.0000E+00

            IN - OUT =   103835552.2307              IN - OUT =         -22.6025

          STORAGE:                                 STORAGE:
          --------                                 --------
      STORAGE CHANGE =   103835544.0785        STORAGE CHANGE =         -22.6025

 PERCENT DISCREPANCY IS DIFFERENCE BETWEEN IN-OUT MINUS CHANGE IN STORAGE
 DIVIDED BY THE AVERAGE OF IN AND OUT TIMES 100

 PERCENT DISCREPANCY =           0.00     PERCENT DISCREPANCY =           0.00






1
  VOLUMETRIC BUDGET FOR AGRICULTURAL FIELDS AT  END OF TIME STEP   30, STRESS PERIOD   9
  ------------------------------------------------------------------------------

     CUMULATIVE VOLUMES      L**3       RATES FOR THIS TIME STEP      L**3/T
     ------------------                 ------------------------

           IN:                                      IN:
           ---                                      ---
               AG WELLS  =   257979248.0000                 AG WELLS  =           7.5083
      DIVERSION SEGMENTS =   197194544.0000        DIVERSION SEGMENTS =          18.4023
           GW IRRIGATION =           0.0000             GW IRRIGATION =           0.0000
           SW IRRIGATION =           0.0000             SW IRRIGATION =           0.0000
        SYSTEM LOSSES GW =           0.0000          SYSTEM LOSSES GW =           0.0000
        SYSTEM LOSSES SW =           0.0000          SYSTEM LOSSES SW =           0.0000

                TOTAL IN =   455173792.0000                  TOTAL IN =          25.9106

          OUT:                                     OUT:
          ----                                     ----
               AG WELLS  =           0.0000                 AG WELLS  =           0.0000
      DIVERSION SEGMENTS =           0.0000        DIVERSION SEGMENTS =           0.0000
           GW IRRIGATION =   257979248.0000             GW IRRIGATION =           7.5083
           SW IRRIGATION =   197198384.0000             SW IRRIGATION =          18.4027
        SYSTEM LOSSES GW =           0.0000          SYSTEM LOSSES GW =           0.0000
        SYSTEM LOSSES SW =           0.0000          SYSTEM LOSSES SW =           0.0000

               TOTAL OUT =   455177632.0000                 TOTAL OUT =          25.9110

                IN - OUT =       -3840.0000                  IN - OUT =      -3.6812E-04

     PERCENT DISCREPANCY =          -0.00         PERCENT DISCREPANCY =          -0.00



1
  VOLUMETRIC BUDGET FOR ENTIRE MODEL AT END OF TIME STEP   30, STRESS PERIOD   9
  ------------------------------------------------------------------------------

     CUMULATIVE VOLUMES      L**3       RATES FOR THIS TIME STEP      L**3/T
     ------------------                 ------------------------

           IN:                                      IN:
           ---                                      ---
             STORAGE     =   286922016.0000               STORAGE     =          22.1069
       CONSTANT HEAD     =           0.0000         CONSTANT HEAD     =           0.0000
     HEAD DEP BOUNDS     =     6082176.0000       HEAD DEP BOUNDS     =           0.2880
      STREAM LEAKAGE     =   250393488.0000        STREAM LEAKAGE     =          11.7929
        UZF RECHARGE     =       73223.9531          UZF RECHARGE     =           0.0000
               GW ET     =           0.0000                 GW ET     =           0.0000
     SURFACE LEAKAGE     =           0.0000       SURFACE LEAKAGE     =           0.0000
           AG WELLS      =           0.0000             AG WELLS      =           0.0000

                TOTAL IN =   543470912.0000                  TOTAL IN =          34.1878

          OUT:                                     OUT:
          ----                                     ----
             STORAGE     =    60455640.0000               STORAGE     =          15.9043
       CONSTANT HEAD     =           0.0000         CONSTANT HEAD     =           0.0000
     HEAD DEP BOUNDS     =     6088238.5000       HEAD DEP BOUNDS     =           0.2867
      STREAM LEAKAGE     =   218950592.0000        STREAM LEAKAGE     =          10.4884
        UZF RECHARGE     =           0.0000          UZF RECHARGE     =           0.0000
               GW ET     =           0.0000                 GW ET     =           0.0000
     SURFACE LEAKAGE     =           0.0000       SURFACE LEAKAGE     =           0.0000
           AG WELLS      =   257979248.0000             AG WELLS      =           7.5083

               TOTAL OUT =   543473728.0000                 TOTAL OUT =          34.1877

                IN - OUT =       -2816.0000                  IN - OUT =       7.2479E-05

     PERCENT DISCREPANCY =          -0.00         PERCENT DISCREPANCY =           0.00






         TIME SUMMARY AT END OF TIME STEP   30 IN STRESS PERIOD    9
                    SECONDS     MINUTES      HOURS       DAYS        YEARS
                    -----------------------------------------------------------
   TIME STEP LENGTH  87667.      1461.1      24.352      1.0147     2.77799E-03
 STRESS PERIOD TIME 2.63000E+06  43833.      730.56      30.440     8.33397E-02
         TOTAL TIME 2.11264E+07 3.52107E+05  5868.4      244.52     0.66945    
1
1
                            STRESS PERIOD NO.   10, LENGTH =   2630000.    
                            -----------------------------------------------

                              NUMBER OF TIME STEPS =    30

                               MULTIPLIER FOR DELT =     1.000

                            INITIAL TIME STEP SIZE =   87666.66    

 REUSING NON-PARAMETER GHB CELLS FROM LAST STRESS PERIOD

      2 GHB CELLS

 REUSING STREAM SEGMENT DATA FROM LAST STRESS PERIOD



            AREAL INFILTRATION RATE
 READING ON UNIT   19 WITH FORMAT: (10F4.0)            

            1           2           3           4           5           6           7           8           9          10
 ........................................................................................................................
   1   1.2000E-09   0.000       0.000       0.000       0.000       0.000       0.000       0.000       0.000       0.000    
   2   2.1000E-09  2.0000E-09  8.0000E-10  8.5000E-09   0.000       0.000       0.000       0.000       0.000       0.000    
   3   5.0000E-10  1.1000E-09  8.8000E-09  5.5000E-09   0.000       0.000       0.000       0.000       0.000       0.000    
   4   8.5000E-09  1.1000E-09  1.1000E-09  1.1000E-09  2.0000E-09   0.000       0.000       0.000       0.000       0.000    
   5   8.5000E-09  1.1000E-09  1.1000E-09  1.1000E-09  1.1000E-09   0.000       0.000       0.000       0.000       0.000    
   6   8.5000E-09  5.2000E-09  2.1000E-09  1.1000E-09  1.5000E-09   0.000       0.000       0.000       0.000       0.000    
   7   8.5000E-09  5.2000E-09  2.1000E-09  1.2000E-09  2.0000E-09   0.000       0.000       0.000       0.000       0.000    
   8   5.0000E-10  5.2000E-09  2.1000E-09  1.2000E-09  5.0000E-09   0.000       0.000       0.000       0.000       0.000    
   9   5.0000E-10  5.2000E-09  2.1000E-09  1.2000E-09  5.0000E-09   0.000       0.000       0.000       0.000       0.000    
  10   5.0000E-10  5.2000E-09  2.1000E-09  1.2000E-09  5.8000E-09   0.000       0.000       0.000       0.000       0.000    
  11   1.0000E-10  1.1000E-09  1.1000E-09  1.2000E-09  5.0000E-09   0.000       0.000       0.000       0.000       0.000    
  12   1.1000E-09  1.1000E-09  1.1000E-09  1.1000E-09  2.0000E-09   0.000       0.000       0.000       0.000       0.000    
  13   1.1000E-09  2.2000E-09  2.2000E-09  2.1000E-09  1.0000E-09   0.000       0.000       0.000       0.000       0.000    
  14   2.0000E-10  5.5000E-09  5.5000E-09  5.2000E-09  1.0000E-09   0.000       0.000       0.000       0.000       0.000    
  15    0.000      8.8000E-09  8.8000E-09   0.000       0.000       0.000       0.000       0.000       0.000       0.000    

                  ET RATE =  7.500000E-08

 USING ET EXTINCTION DEPTH FROM PREVIOUS STRESS PERIOD. CURRENT PERIOD IS:      10

 USING EXTINCTION WATER CONTENT FROM PREVIOUS STRESS PERIOD. CURRENT PERIOD IS:      10

 USING AIR ENTRY PRESSURE FROM PREVIOUS STRESS PERIOD. CURRENT PERIOD IS:      10

 USING ROOT PRESSURE HEAD FROM PREVIOUS STRESS PERIOD. CURRENT PERIOD IS:      10

 USING ROOT ACTIVITY FROM PREVIOUS STRESS PERIOD. CURRENT PERIOD IS:      10

 PROCESSING AG STRESS PERIOD DATA

 READING AG STRESS PERIOD DATA

 READING IRRIGATION SEGMENT

 READING IRRIGATION WELL

 READING SUPPLEMENTAL WELL

 END PROCESSING AG STRESS PERIOD DATA OPTIONS
 
 SOLVING FOR HEAD 
                                                   Max.-Head-Change                         Max.-Flux-Residual
  Residual-Control   Outer-Iter.   Inner-Iter.     Column Row Layer    Maximum-Head-Change  Column Row Layer    Maximum-Flux-Residual          L2-NORM 
          0                 1           2             5    6     1       0.7464262596E-01       5    6    1         0.4033309264E+01      0.1035759835E+02
          0                 2           2             5    6     1      -0.7854125163E-02       5    6    1        -0.4359526294E+00      0.1111871106E+01
          0                 3           2             5    6     1       0.1112214407E-02       5    6    1         0.6314434828E-01      0.1542865867E+00
          0                 4           1             5    6     1      -0.4425596968E-04       5    6    1        -0.2582607173E-02      0.6312674450E-02

    ------------------------------------------------
       NWT REQUIRED            4 OUTER ITERATIONS 
       AND A TOTAL OF          7 INNER ITERATIONS.
    ------------------------------------------------

 NO OUTPUT CONTROL FOR STRESS PERIOD   10   TIME STEP    1
 
 SOLVING FOR HEAD 
                                                   Max.-Head-Change                         Max.-Flux-Residual
  Residual-Control   Outer-Iter.   Inner-Iter.     Column Row Layer    Maximum-Head-Change  Column Row Layer    Maximum-Flux-Residual          L2-NORM 
          0                 1           2             5    6     1       0.7184264230E-01       5    6    1         0.3879276666E+01      0.1004990092E+02
          0                 2           2             5    7     1      -0.4053305848E-01       5    6    1        -0.2212922337E+01      0.5419737651E+01
          0                 3           2             4    7     1       0.1004944082E-01       5    6    1         0.5571304277E+00      0.1365007168E+01
          0                 4           2             4    7     1      -0.3998771904E-03       5    6    1        -0.2278666215E-01      0.5602342197E-01
          0                 5           1             4    7     1       0.4930658179E-05       5    6    1         0.2887753321E-03      0.7432866979E-03

    ------------------------------------------------
       NWT REQUIRED            5 OUTER ITERATIONS 
       AND A TOTAL OF          9 INNER ITERATIONS.
    ------------------------------------------------

 NO OUTPUT CONTROL FOR STRESS PERIOD   10   TIME STEP    2
 
 SOLVING FOR HEAD 
                                                   Max.-Head-Change                         Max.-Flux-Residual
  Residual-Control   Outer-Iter.   Inner-Iter.     Column Row Layer    Maximum-Head-Change  Column Row Layer    Maximum-Flux-Residual          L2-NORM 
          0                 1           2             5    6     1       0.6992548352E-01       5    6    1         0.3773730004E+01      0.9843014401E+01
          0                 2           2             5    6     1      -0.6908788576E-02       5    6    1        -0.3832510744E+00      0.9987980467E+00
          0                 3           2             5    6     1       0.4398646523E-03       5    6    1         0.2509848922E-01      0.6602906754E-01
          0                 4           1             5    7     1      -0.2559844764E-04       5    6    1        -0.1495337172E-02      0.4207888544E-02

    ------------------------------------------------
       NWT REQUIRED            4 OUTER ITERATIONS 
       AND A TOTAL OF          7 INNER ITERATIONS.
    ------------------------------------------------

 NO OUTPUT CONTROL FOR STRESS PERIOD   10   TIME STEP    3
 
 SOLVING FOR HEAD 
                                                   Max.-Head-Change                         Max.-Flux-Residual
  Residual-Control   Outer-Iter.   Inner-Iter.     Column Row Layer    Maximum-Head-Change  Column Row Layer    Maximum-Flux-Residual          L2-NORM 
          0                 1           2             5    7     1       0.6823317601E-01       5    6    1         0.3634353140E+01      0.9567174668E+01
          0                 2           2             4    7     1      -0.4045125667E-01       5    6    1        -0.2188430661E+01      0.5378499831E+01
          0                 3           2             4    7     1       0.1004559206E-01       5    6    1         0.5554160046E+00      0.1362258828E+01
          0                 4           2             4    7     1      -0.3997240582E-03       5    6    1        -0.2271586573E-01      0.5591143638E-01
          0                 5           1             4    7     1       0.4928769945E-05       5    7    1         0.2878353330E-03      0.7423338605E-03

    ------------------------------------------------
       NWT REQUIRED            5 OUTER ITERATIONS 
       AND A TOTAL OF          9 INNER ITERATIONS.
    ------------------------------------------------

 NO OUTPUT CONTROL FOR STRESS PERIOD   10   TIME STEP    4
 
 SOLVING FOR HEAD 
                                                   Max.-Head-Change                         Max.-Flux-Residual
  Residual-Control   Outer-Iter.   Inner-Iter.     Column Row Layer    Maximum-Head-Change  Column Row Layer    Maximum-Flux-Residual          L2-NORM 
          0                 1           2             5    7     1       0.6724189037E-01       5    7    1         0.3566975779E+01      0.9383345261E+01
          0                 2           2             5    7     1      -0.6669815619E-02       5    7    1        -0.3636926071E+00      0.9554717966E+00
          0                 3           2             5    7     1       0.4828220553E-03       5    7    1         0.2705439795E-01      0.7043646055E-01
          0                 4           1             4    7     1      -0.5471647255E-04       5    7    1        -0.3137776728E-02      0.7832706830E-02

    ------------------------------------------------
       NWT REQUIRED            4 OUTER ITERATIONS 
       AND A TOTAL OF          7 INNER ITERATIONS.
    ------------------------------------------------

 NO OUTPUT CONTROL FOR STRESS PERIOD   10   TIME STEP    5
 
 SOLVING FOR HEAD 
                                                   Max.-Head-Change                         Max.-Flux-Residual
  Residual-Control   Outer-Iter.   Inner-Iter.     Column Row Layer    Maximum-Head-Change  Column Row Layer    Maximum-Flux-Residual          L2-NORM 
          0                 1           2             5    7     1       0.6587708572E-01       5    7    1         0.3494729905E+01      0.9130288255E+01
          0                 2           2             4    7     1      -0.4038090568E-01       5    7    1        -0.2174471804E+01      0.5340634494E+01
          0                 3           2             4    7     1       0.1004080088E-01       5    7    1         0.5544386283E+00      0.1359720703E+01
          0                 4           2             4    7     1      -0.3995334245E-03       5    7    1        -0.2267645785E-01      0.5580768335E-01
          0                 5           1             4    7     1       0.4926419537E-05       5    7    1         0.2873706399E-03      0.7413299199E-03

    ------------------------------------------------
       NWT REQUIRED            5 OUTER ITERATIONS 
       AND A TOTAL OF          9 INNER ITERATIONS.
    ------------------------------------------------

 NO OUTPUT CONTROL FOR STRESS PERIOD   10   TIME STEP    6
 
 SOLVING FOR HEAD 
                                                   Max.-Head-Change                         Max.-Flux-Residual
  Residual-Control   Outer-Iter.   Inner-Iter.     Column Row Layer    Maximum-Head-Change  Column Row Layer    Maximum-Flux-Residual          L2-NORM 
          0                 1           2             4    7     1       0.6519633127E-01       5    7    1         0.3444520101E+01      0.8966346568E+01
          0                 2           2             4    7     1      -0.6478856969E-02       5    7    1        -0.3518050592E+00      0.9147082780E+00
          0                 3           2             4    7     1       0.4657694696E-03       5    7    1         0.2598257162E-01      0.6705389805E-01
          0                 4           1             4    7     1      -0.6132622727E-04       5    7    1        -0.3489258424E-02      0.8668254823E-02

    ------------------------------------------------
       NWT REQUIRED            4 OUTER ITERATIONS 
       AND A TOTAL OF          7 INNER ITERATIONS.
    ------------------------------------------------

 NO OUTPUT CONTROL FOR STRESS PERIOD   10   TIME STEP    7
 
 SOLVING FOR HEAD 
                                                   Max.-Head-Change                         Max.-Flux-Residual
  Residual-Control   Outer-Iter.   Inner-Iter.     Column Row Layer    Maximum-Head-Change  Column Row Layer    Maximum-Flux-Residual          L2-NORM 
          0                 1           2             4    7     1       0.6469552378E-01       4    7    1         0.3387494035E+01      0.8733245641E+01
          0                 2           2             4    7     1      -0.4029910617E-01       4    7    1        -0.2163749948E+01      0.5305767768E+01
          0                 3           2             4    7     1       0.1003522795E-01       4    7    1         0.5536879865E+00      0.1357371882E+01
          0                 4           2             4    7     1      -0.3993116823E-03       4    7    1        -0.2264590595E-01      0.5571148369E-01
          0                 5           1             4    7     1       0.4923685367E-05       4    7    1         0.2869933705E-03      0.7397875056E-03

    ------------------------------------------------
       NWT REQUIRED            5 OUTER ITERATIONS 
       AND A TOTAL OF          9 INNER ITERATIONS.
    ------------------------------------------------

 NO OUTPUT CONTROL FOR STRESS PERIOD   10   TIME STEP    8
 
 SOLVING FOR HEAD 
                                                   Max.-Head-Change                         Max.-Flux-Residual
  Residual-Control   Outer-Iter.   Inner-Iter.     Column Row Layer    Maximum-Head-Change  Column Row Layer    Maximum-Flux-Residual          L2-NORM 
          0                 1           2             4    7     1       0.6430469838E-01       4    7    1         0.3368128635E+01      0.8586553339E+01
          0                 2           2             4    7     1      -0.6385196753E-02       4    7    1        -0.3438243795E+00      0.8760578469E+00
          0                 3           2             4    7     1       0.4918405332E-03       4    7    1         0.2721047675E-01      0.6852285393E-01
          0                 4           1             4    7     1      -0.4068378232E-04       4    7    1        -0.2310123872E-02      0.5725725062E-02

    ------------------------------------------------
       NWT REQUIRED            4 OUTER ITERATIONS 
       AND A TOTAL OF          7 INNER ITERATIONS.
    ------------------------------------------------

 NO OUTPUT CONTROL FOR STRESS PERIOD   10   TIME STEP    9
 
 SOLVING FOR HEAD 
                                                   Max.-Head-Change                         Max.-Flux-Residual
  Residual-Control   Outer-Iter.   Inner-Iter.     Column Row Layer    Maximum-Head-Change  Column Row Layer    Maximum-Flux-Residual          L2-NORM 
          0                 1           2             4    7     1       0.6375766421E-01       4    7    1         0.3341146832E+01      0.8370697581E+01
          0                 2           2             4    7     1      -0.4021101122E-01       4    7    1        -0.2159375145E+01      0.5273250708E+01
          0                 3           2             4    7     1       0.1003130710E-01       4    7    1         0.5535041436E+00      0.1355472312E+01
          0                 4           2             4    7     1      -0.3991556776E-03       4    7    1        -0.2263838738E-01      0.5563402231E-01
          0                 5           1             4    7     1       0.4921761400E-05       4    7    1         0.2868980823E-03      0.7390717045E-03

    ------------------------------------------------
       NWT REQUIRED            5 OUTER ITERATIONS 
       AND A TOTAL OF          9 INNER ITERATIONS.
    ------------------------------------------------

 NO OUTPUT CONTROL FOR STRESS PERIOD   10   TIME STEP   10
 
 SOLVING FOR HEAD 
                                                   Max.-Head-Change                         Max.-Flux-Residual
  Residual-Control   Outer-Iter.   Inner-Iter.     Column Row Layer    Maximum-Head-Change  Column Row Layer    Maximum-Flux-Residual          L2-NORM 
          0                 1           2             4    7     1       0.6331294661E-01       4    7    1         0.3319102240E+01      0.8239017548E+01
          0                 2           2             4    7     1      -0.6280892308E-02       4    7    1        -0.3384724573E+00      0.8403904339E+00
          0                 3           2             4    7     1       0.4838471226E-03       4    7    1         0.2679032655E-01      0.6587569566E-01
          0                 4           1             4    7     1      -0.3726988943E-04       4    7    1        -0.2117410334E-02      0.5190562580E-02

    ------------------------------------------------
       NWT REQUIRED            4 OUTER ITERATIONS 
       AND A TOTAL OF          7 INNER ITERATIONS.
    ------------------------------------------------

 NO OUTPUT CONTROL FOR STRESS PERIOD   10   TIME STEP   11
 
 SOLVING FOR HEAD 
                                                   Max.-Head-Change                         Max.-Flux-Residual
  Residual-Control   Outer-Iter.   Inner-Iter.     Column Row Layer    Maximum-Head-Change  Column Row Layer    Maximum-Flux-Residual          L2-NORM 
          0                 1           2             4    7     1       0.6272141807E-01       4    7    1         0.3289613444E+01      0.8038460660E+01
          0                 2           2             4    7     1      -0.4002543001E-01       4    7    1        -0.2149616762E+01      0.5233037192E+01
          0                 3           2             4    7     1       0.1009522167E-01       4    7    1         0.5570446203E+00      0.1363096550E+01
          0                 4           2             4    7     1      -0.4016989129E-03       4    7    1        -0.2278319400E-01      0.5594808587E-01
          0                 5           1             4    7     1       0.4953120738E-05       4    7    1         0.2887332316E-03      0.7431651627E-03

    ------------------------------------------------
       NWT REQUIRED            5 OUTER ITERATIONS 
       AND A TOTAL OF          9 INNER ITERATIONS.
    ------------------------------------------------

 NO OUTPUT CONTROL FOR STRESS PERIOD   10   TIME STEP   12
 
 SOLVING FOR HEAD 
                                                   Max.-Head-Change                         Max.-Flux-Residual
  Residual-Control   Outer-Iter.   Inner-Iter.     Column Row Layer    Maximum-Head-Change  Column Row Layer    Maximum-Flux-Residual          L2-NORM 
          0                 1           2             4    7     1       0.6224877335E-01       4    7    1         0.3265546202E+01      0.7919485505E+01
          0                 2           2             4    7     1      -0.6183280042E-02       4    7    1        -0.3334337251E+00      0.8092502865E+00
          0                 3           2             4    7     1       0.4788960824E-03       4    7    1         0.2653118271E-01      0.6393007044E-01
          0                 4           1             4    7     1      -0.3917244809E-04       4    7    1        -0.2225870695E-02      0.5406916322E-02

    ------------------------------------------------
       NWT REQUIRED            4 OUTER ITERATIONS 
       AND A TOTAL OF          7 INNER ITERATIONS.
    ------------------------------------------------

 NO OUTPUT CONTROL FOR STRESS PERIOD   10   TIME STEP   13
 
 SOLVING FOR HEAD 
                                                   Max.-Head-Change                         Max.-Flux-Residual
  Residual-Control   Outer-Iter.   Inner-Iter.     Column Row Layer    Maximum-Head-Change  Column Row Layer    Maximum-Flux-Residual          L2-NORM 
          0                 1           2             4    7     1       0.6162805726E-01       4    7    1         0.3234331051E+01      0.7732512828E+01
          0                 2           2             4    7     1      -0.3984030969E-01       4    7    1        -0.2139863135E+01      0.5194920961E+01
          0                 3           2             4    7     1       0.1015920505E-01       4    7    1         0.5605875782E+00      0.1370863265E+01
          0                 4           2             4    7     1      -0.4042448856E-03       4    7    1        -0.2292810207E-01      0.5626796759E-01
          0                 5           1             4    7     1       0.4984513680E-05       4    7    1         0.2905696629E-03      0.7483790861E-03

    ------------------------------------------------
       NWT REQUIRED            5 OUTER ITERATIONS 
       AND A TOTAL OF          9 INNER ITERATIONS.
    ------------------------------------------------

 NO OUTPUT CONTROL FOR STRESS PERIOD   10   TIME STEP   14
 
 SOLVING FOR HEAD 
                                                   Max.-Head-Change                         Max.-Flux-Residual
  Residual-Control   Outer-Iter.   Inner-Iter.     Column Row Layer    Maximum-Head-Change  Column Row Layer    Maximum-Flux-Residual          L2-NORM 
          0                 1           2             4    7     1       0.6112899665E-01       4    7    1         0.3208698643E+01      0.7624694827E+01
          0                 2           2             4    7     1      -0.6121249459E-02       4    7    1        -0.3302645728E+00      0.7856123438E+00
          0                 3           2             4    7     1       0.4878595739E-03       4    7    1         0.2703688307E-01      0.6398436088E-01
          0                 4           1             4    7     1      -0.5838388171E-04       4    7    1        -0.3315739465E-02      0.8046109783E-02

    ------------------------------------------------
       NWT REQUIRED            4 OUTER ITERATIONS 
       AND A TOTAL OF          7 INNER ITERATIONS.
    ------------------------------------------------

 NO OUTPUT CONTROL FOR STRESS PERIOD   10   TIME STEP   15
 
 SOLVING FOR HEAD 
                                                   Max.-Head-Change                         Max.-Flux-Residual
  Residual-Control   Outer-Iter.   Inner-Iter.     Column Row Layer    Maximum-Head-Change  Column Row Layer    Maximum-Flux-Residual          L2-NORM 
          0                 1           2             4    7     1       0.6048625677E-01       4    7    1         0.3176159869E+01      0.7449912474E+01
          0                 2           2             4    7     1      -0.3966602367E-01       4    7    1        -0.2130655492E+01      0.5160762899E+01
          0                 3           2             4    7     1       0.1020878942E-01       4    7    1         0.5633338168E+00      0.1376847770E+01
          0                 4           2             4    7     1      -0.4062179054E-03       4    7    1        -0.2304042410E-01      0.5651480025E-01
          0                 5           1             4    7     1       0.5008841622E-05       4    7    1         0.2919931171E-03      0.7518871676E-03

    ------------------------------------------------
       NWT REQUIRED            5 OUTER ITERATIONS 
       AND A TOTAL OF          9 INNER ITERATIONS.
    ------------------------------------------------

 NO OUTPUT CONTROL FOR STRESS PERIOD   10   TIME STEP   16
 
 SOLVING FOR HEAD 
                                                   Max.-Head-Change                         Max.-Flux-Residual
  Residual-Control   Outer-Iter.   Inner-Iter.     Column Row Layer    Maximum-Head-Change  Column Row Layer    Maximum-Flux-Residual          L2-NORM 
          0                 1           2             4    7     1       0.5996757851E-01       4    7    1         0.3149344011E+01      0.7351981776E+01
          0                 2           2             4    7     1      -0.6080792288E-02       4    7    1        -0.3282221645E+00      0.7673498268E+00
          0                 3           2             4    7     1       0.4736172051E-03       4    7    1         0.2626017554E-01      0.6126513074E-01
          0                 4           1             4    7     1      -0.9915311773E-04       4    7    1        -0.5627986667E-02      0.1375304285E-01

    ------------------------------------------------
       NWT REQUIRED            4 OUTER ITERATIONS 
       AND A TOTAL OF          7 INNER ITERATIONS.
    ------------------------------------------------

 NO OUTPUT CONTROL FOR STRESS PERIOD   10   TIME STEP   17
 
 SOLVING FOR HEAD 
                                                   Max.-Head-Change                         Max.-Flux-Residual
  Residual-Control   Outer-Iter.   Inner-Iter.     Column Row Layer    Maximum-Head-Change  Column Row Layer    Maximum-Flux-Residual          L2-NORM 
          0                 1           2             4    7     1       0.5930963650E-01       4    7    1         0.3115851969E+01      0.7188265511E+01
          0                 2           2             4    7     1      -0.3562193242E-01       4    7    1        -0.1913730077E+01      0.4618513821E+01
          0                 3           2             4    7     1       0.1375612711E-01       4    7    1         0.7590441350E+00      0.1857475313E+01
          0                 4           2             4    7     1      -0.5473702989E-03       4    7    1        -0.3104501880E-01      0.7630037696E-01
          0                 5           1             4    7     1       0.6749311339E-05       4    7    1         0.3934359670E-03      0.1024189269E-02

    ------------------------------------------------
       NWT REQUIRED            5 OUTER ITERATIONS 
       AND A TOTAL OF          9 INNER ITERATIONS.
    ------------------------------------------------

 NO OUTPUT CONTROL FOR STRESS PERIOD   10   TIME STEP   18
 
 SOLVING FOR HEAD 
                                                   Max.-Head-Change                         Max.-Flux-Residual
  Residual-Control   Outer-Iter.   Inner-Iter.     Column Row Layer    Maximum-Head-Change  Column Row Layer    Maximum-Flux-Residual          L2-NORM 
          0                 1           2             4    7     1       0.5873601980E-01       4    7    1         0.3086219389E+01      0.7079260406E+01
          0                 2           2             4    7     1      -0.1102908757E-01       4    7    1        -0.5939057535E+00      0.1386081075E+01
          0                 3           2             4    7     1       0.5692225936E-02       4    7    1         0.3141721678E+00      0.7654690651E+00
          0                 4           2             4    7     1      -0.2511455940E-03       4    7    1        -0.1424728189E-01      0.3464447739E-01
          0                 5           1             4   13     1      -0.3179389069E-04       4   13    1        -0.1977198163E-02      0.4760764212E-02

    ------------------------------------------------
       NWT REQUIRED            5 OUTER ITERATIONS 
       AND A TOTAL OF          9 INNER ITERATIONS.
    ------------------------------------------------

 NO OUTPUT CONTROL FOR STRESS PERIOD   10   TIME STEP   19
 
 SOLVING FOR HEAD 
                                                   Max.-Head-Change                         Max.-Flux-Residual
  Residual-Control   Outer-Iter.   Inner-Iter.     Column Row Layer    Maximum-Head-Change  Column Row Layer    Maximum-Flux-Residual          L2-NORM 
          0                 1           2             4    7     1       0.5806421140E-01       4    7    1         0.3051854872E+01      0.6926355520E+01
          0                 2           2             4    7     1      -0.3577114891E-01       4    7    1        -0.1921842596E+01      0.4629840082E+01
          0                 3           2             4    7     1       0.1350322198E-01       4    7    1         0.7450998713E+00      0.1822596177E+01
          0                 4           2             4    7     1      -0.5373069320E-03       4    7    1        -0.3047469547E-01      0.7486574484E-01
          0                 5           1             4    7     1       0.6625225784E-05       4    7    1         0.3862082062E-03      0.1005873266E-02

    ------------------------------------------------
       NWT REQUIRED            5 OUTER ITERATIONS 
       AND A TOTAL OF          9 INNER ITERATIONS.
    ------------------------------------------------

 NO OUTPUT CONTROL FOR STRESS PERIOD   10   TIME STEP   20
 
 SOLVING FOR HEAD 
                                                   Max.-Head-Change                         Max.-Flux-Residual
  Residual-Control   Outer-Iter.   Inner-Iter.     Column Row Layer    Maximum-Head-Change  Column Row Layer    Maximum-Flux-Residual          L2-NORM 
          0                 1           2             4    7     1       0.5748252021E-01       4    7    1         0.3021647945E+01      0.6827811872E+01
          0                 2           2             4    7     1      -0.8473903444E-02       4    7    1        -0.4568602764E+00      0.1047676139E+01
          0                 3           2             4    7     1       0.3167769690E-02       4    7    1         0.1749075264E+00      0.4227722103E+00
          0                 4           1             4    7     1      -0.1037805210E-03       4    7    1        -0.5890987121E-02      0.1416307469E-01
          0                 5           1             4   13     1      -0.2433159092E-04       4   13    1        -0.1432330046E-02      0.3033357875E-02

    ------------------------------------------------
       NWT REQUIRED            5 OUTER ITERATIONS 
       AND A TOTAL OF          8 INNER ITERATIONS.
    ------------------------------------------------

 NO OUTPUT CONTROL FOR STRESS PERIOD   10   TIME STEP   21
 
 SOLVING FOR HEAD 
                                                   Max.-Head-Change                         Max.-Flux-Residual
  Residual-Control   Outer-Iter.   Inner-Iter.     Column Row Layer    Maximum-Head-Change  Column Row Layer    Maximum-Flux-Residual          L2-NORM 
          0                 1           2             4    7     1       0.5680238445E-01       4    7    1         0.2986720905E+01      0.6683872082E+01
          0                 2           2             4    7     1      -0.3487579739E-01       4    7    1        -0.1873866891E+01      0.4505279783E+01
          0                 3           2             4    7     1       0.1419379188E-01       4    7    1         0.7832040652E+00      0.1915911080E+01
          0                 4           2             4    7     1      -0.5647854730E-03       4    7    1        -0.3203316652E-01      0.7871239282E-01
          0                 5           1             4    7     1       0.6964047812E-05       4    7    1         0.4059588337E-03      0.1060680627E-02

    ------------------------------------------------
       NWT REQUIRED            5 OUTER ITERATIONS 
       AND A TOTAL OF          9 INNER ITERATIONS.
    ------------------------------------------------

 NO OUTPUT CONTROL FOR STRESS PERIOD   10   TIME STEP   22
 
 SOLVING FOR HEAD 
                                                   Max.-Head-Change                         Max.-Flux-Residual
  Residual-Control   Outer-Iter.   Inner-Iter.     Column Row Layer    Maximum-Head-Change  Column Row Layer    Maximum-Flux-Residual          L2-NORM 
          0                 1           2             4    7     1       0.5620646332E-01       4    7    1         0.2955689958E+01      0.6589553737E+01
          0                 2           2             4    7     1      -0.1076296276E-01       4    7    1        -0.5797767060E+00      0.1335857720E+01
          0                 3           2             4    7     1       0.5637519941E-02       4    7    1         0.3111656705E+00      0.7571771765E+00
          0                 4           2             4    7     1      -0.2250007028E-03       4    7    1        -0.1276517085E-01      0.3097050180E-01
          0                 5           1             4   13     1      -0.3072941089E-04       4   13    1        -0.1910957913E-02      0.3485041286E-02

    ------------------------------------------------
       NWT REQUIRED            5 OUTER ITERATIONS 
       AND A TOTAL OF          9 INNER ITERATIONS.
    ------------------------------------------------

 NO OUTPUT CONTROL FOR STRESS PERIOD   10   TIME STEP   23
 
 SOLVING FOR HEAD 
                                                   Max.-Head-Change                         Max.-Flux-Residual
  Residual-Control   Outer-Iter.   Inner-Iter.     Column Row Layer    Maximum-Head-Change  Column Row Layer    Maximum-Flux-Residual          L2-NORM 
          0                 1           2             4    7     1       0.5552223745E-01       4    7    1         0.2920434826E+01      0.6454432883E+01
          0                 2           2             4    7     1      -0.3317223140E-01       4    7    1        -0.1782495931E+01      0.4275482123E+01
          0                 3           2             4    7     1       0.1561381919E-01       4    7    1         0.8615504406E+00      0.2108371627E+01
          0                 4           2             4    7     1      -0.6212899439E-03       4    7    1        -0.3523741850E-01      0.8664185872E-01
          0                 5           1             4    7     1       0.7660771689E-05       4    7    1         0.4465573684E-03      0.1168421882E-02

    ------------------------------------------------
       NWT REQUIRED            5 OUTER ITERATIONS 
       AND A TOTAL OF          9 INNER ITERATIONS.
    ------------------------------------------------

 NO OUTPUT CONTROL FOR STRESS PERIOD   10   TIME STEP   24
 
 SOLVING FOR HEAD 
                                                   Max.-Head-Change                         Max.-Flux-Residual
  Residual-Control   Outer-Iter.   Inner-Iter.     Column Row Layer    Maximum-Head-Change  Column Row Layer    Maximum-Flux-Residual          L2-NORM 
          0                 1           2             4    7     1       0.5490711316E-01       4    7    1         0.2888374740E+01      0.6359823021E+01
          0                 2           2             4    7     1      -0.1189479045E-01       4    7    1        -0.6405724855E+00      0.1477174725E+01
          0                 3           2             4    7     1       0.6930092307E-02       4    7    1         0.3824796261E+00      0.9321056872E+00
          0                 4           2             4    7     1      -0.2803814119E-03       4    7    1        -0.1590579702E-01      0.3867460664E-01
          0                 5           1             4   13     1      -0.3280312945E-04       4   13    1        -0.2039845635E-02      0.3486796456E-02

    ------------------------------------------------
       NWT REQUIRED            5 OUTER ITERATIONS 
       AND A TOTAL OF          9 INNER ITERATIONS.
    ------------------------------------------------

 NO OUTPUT CONTROL FOR STRESS PERIOD   10   TIME STEP   25
 
 SOLVING FOR HEAD 
                                                   Max.-Head-Change                         Max.-Flux-Residual
  Residual-Control   Outer-Iter.   Inner-Iter.     Column Row Layer    Maximum-Head-Change  Column Row Layer    Maximum-Flux-Residual          L2-NORM 
          0                 1           2             4    7     1       0.5422120043E-01       4    7    1         0.2852927500E+01      0.6232822426E+01
          0                 2           2             4    7     1      -0.3168959643E-01       4    7    1        -0.1702968809E+01      0.4075679711E+01
          0                 3           2             4    7     1       0.1683199203E-01       4    7    1         0.9287601275E+00      0.2273521729E+01
          0                 4           2             4    7     1      -0.6697624200E-03       4    7    1        -0.3798618442E-01      0.9345310046E-01
          0                 5           1             4    7     1       0.8258458546E-05       4    7    1         0.4813839514E-03      0.1264112876E-02

    ------------------------------------------------
       NWT REQUIRED            5 OUTER ITERATIONS 
       AND A TOTAL OF          9 INNER ITERATIONS.
    ------------------------------------------------

 NO OUTPUT CONTROL FOR STRESS PERIOD   10   TIME STEP   26
 
 SOLVING FOR HEAD 
                                                   Max.-Head-Change                         Max.-Flux-Residual
  Residual-Control   Outer-Iter.   Inner-Iter.     Column Row Layer    Maximum-Head-Change  Column Row Layer    Maximum-Flux-Residual          L2-NORM 
          0                 1           2             4    7     1       0.5359182011E-01       4    7    1         0.2820095274E+01      0.6138765741E+01
          0                 2           2             4    7     1      -0.1313176178E-01       4    7    1        -0.7069982401E+00      0.1633863125E+01
          0                 3           2             4    7     1       0.8391775035E-02       4    7    1         0.4631225835E+00      0.1129982604E+01
          0                 4           2             4    7     1      -0.3447952351E-03       4    7    1        -0.1955863645E-01      0.4769697696E-01
          0                 5           1             4   13     1      -0.2791481252E-04       4   13    1        -0.1735533142E-02      0.3128874675E-02

    ------------------------------------------------
       NWT REQUIRED            5 OUTER ITERATIONS 
       AND A TOTAL OF          9 INNER ITERATIONS.
    ------------------------------------------------

 NO OUTPUT CONTROL FOR STRESS PERIOD   10   TIME STEP   27
 
 SOLVING FOR HEAD 
                                                   Max.-Head-Change                         Max.-Flux-Residual
  Residual-Control   Outer-Iter.   Inner-Iter.     Column Row Layer    Maximum-Head-Change  Column Row Layer    Maximum-Flux-Residual          L2-NORM 
          0                 1           2             4    7     1       0.5290628463E-01       4    7    1         0.2784575052E+01      0.6019225098E+01
          0                 2           2             4    7     1      -0.3029435773E-01       4    7    1        -0.1628119919E+01      0.3888207094E+01
          0                 3           2             4    7     1       0.1796977745E-01       4    7    1         0.9915343710E+00      0.2427833207E+01
          0                 4           2             4    7     1      -0.7150362054E-03       4    7    1        -0.4055354692E-01      0.9981930546E-01
          0                 5           1             4    7     1       0.8816703299E-05       4    7    1         0.5139120049E-03      0.1354526384E-02

    ------------------------------------------------
       NWT REQUIRED            5 OUTER ITERATIONS 
       AND A TOTAL OF          9 INNER ITERATIONS.
    ------------------------------------------------

 NO OUTPUT CONTROL FOR STRESS PERIOD   10   TIME STEP   28
 
 SOLVING FOR HEAD 
                                                   Max.-Head-Change                         Max.-Flux-Residual
  Residual-Control   Outer-Iter.   Inner-Iter.     Column Row Layer    Maximum-Head-Change  Column Row Layer    Maximum-Flux-Residual          L2-NORM 
          0                 1           2             4    7     1       0.5226564805E-01       4    7    1         0.2751131563E+01      0.5925883915E+01
          0                 2           2             4    7     1      -0.1436142314E-01       4    7    1        -0.7730203308E+00      0.1790974242E+01
          0                 3           2             4    7     1       0.8840743939E-02       4    7    1         0.4878944878E+00      0.1191578088E+01
          0                 4           2             4    7     1       0.5344955390E-03       5    8    1         0.2972879541E-01      0.7300124273E-01
          0                 5           2             4    7     1       0.1231891497E-03       4    7    1         0.6796317570E-02      0.1693246931E-01
          0                 6           1             4    7     1       0.2560721817E-04       5    8    1         0.1413166691E-02      0.3738254032E-02

    ------------------------------------------------
       NWT REQUIRED            6 OUTER ITERATIONS 
       AND A TOTAL OF         11 INNER ITERATIONS.
    ------------------------------------------------

 NO OUTPUT CONTROL FOR STRESS PERIOD   10   TIME STEP   29
 
 SOLVING FOR HEAD 
                                                   Max.-Head-Change                         Max.-Flux-Residual
  Residual-Control   Outer-Iter.   Inner-Iter.     Column Row Layer    Maximum-Head-Change  Column Row Layer    Maximum-Flux-Residual          L2-NORM 
          0                 1           2             4    7     1       0.5158217114E-01       4    7    1         0.2715636932E+01      0.5813589445E+01
          0                 2           2             4    7     1      -0.2774153370E-01       4    7    1        -0.1491134085E+01      0.3549122257E+01
          0                 3           2             4    7     1       0.2015396561E-01       4    7    1         0.1112037367E+01      0.2724303720E+01
          0                 4           2             4    7     1      -0.8019475935E-03       4    7    1        -0.4548197397E-01      0.1120479405E+00
          0                 5           1             4    7     1       0.9888357299E-05       4    7    1         0.5763578674E-03      0.1525925357E-02

    ------------------------------------------------
       NWT REQUIRED            5 OUTER ITERATIONS 
       AND A TOTAL OF          9 INNER ITERATIONS.
    ------------------------------------------------

 NO OUTPUT CONTROL FOR STRESS PERIOD   10   TIME STEP   30



 STREAM LISTING     PERIOD     10   STEP       30

 LAYER ROW COL. STREAM  RCH.  FLOW INTO     FLOW TO   FLOW OUT OF   OVRLND.     DIRECT     STREAM       STREAM     STREAM     STREAM   STREAMBED  STREAMBED
                SEG.NO.  NO.  STRM. RCH.    AQUIFER    STRM. RCH.    RUNOFF     PRECIP       ET          HEAD       DEPTH      WIDTH   CONDCTNC.   GRADIENT

   1    1    1     1     1    1.7625E+01  2.0521E-01   1.7420E+01  0.000E+00  0.000E+00  0.000E+00  1.09411E+03  1.059E+00  1.124E+01  5.056E-02  1.353E+00
   1    2    2     1     2    1.7420E+01  3.1649E-01   1.7103E+01  0.000E+00  0.000E+00  0.000E+00  1.08911E+03  1.054E+00  1.115E+01  7.807E-02  1.351E+00
   1    3    3     1     3    1.7103E+01  2.6863E-01   1.6835E+01  0.000E+00  0.000E+00  0.000E+00  1.08347E+03  1.049E+00  1.106E+01  6.635E-02  1.350E+00
   1    3    4     1     4    1.6835E+01  2.4632E-01   1.6588E+01  0.000E+00  0.000E+00  0.000E+00  1.07845E+03  1.044E+00  1.097E+01  6.091E-02  1.348E+00
   1    4    5     2     1    1.4588E+01  3.0175E-01   1.4286E+01  0.000E+00  0.000E+00  0.000E+00  1.07280E+03  8.686E-01  1.200E+01  7.800E-02  1.290E+00
   1    5    6     2     2    1.4286E+01  2.3154E-01   1.4055E+01  0.000E+00  0.000E+00  0.000E+00  1.06737E+03  8.590E-01  1.200E+01  6.000E-02  1.286E+00
   1    6    6     2     3    1.4055E+01  2.3103E-01   1.3824E+01  0.000E+00  0.000E+00  0.000E+00  1.06264E+03  8.505E-01  1.200E+01  6.000E-02  1.284E+00
   1    7    6     2     4    1.3824E+01  2.3052E-01   1.3593E+01  0.000E+00  0.000E+00  0.000E+00  1.05792E+03  8.421E-01  1.200E+01  6.000E-02  1.281E+00
   1    8    6     2     5    1.3593E+01  2.3001E-01   1.3363E+01  0.000E+00  0.000E+00  0.000E+00  1.05319E+03  8.335E-01  1.200E+01  6.000E-02  1.278E+00
   1    3    5     3     1    2.0000E+00  2.8252E-01   1.7175E+00  0.000E+00  0.000E+00  0.000E+00  1.07555E+03  1.909E+00  9.636E+00  7.227E-02  1.955E+00
   1    3    6     3     2    1.7175E+00  2.4905E-01   1.4684E+00  0.000E+00  0.000E+00  0.000E+00  1.07264E+03  1.727E+00  8.909E+00  6.682E-02  1.864E+00
   1    3    7     3     3    1.4684E+00  1.9718E-01   1.2712E+00  0.000E+00  0.000E+00  0.000E+00  1.06987E+03  1.555E+00  8.218E+00  5.547E-02  1.777E+00
   1    4    8     3     4    1.2712E+00  2.2567E-01   1.0456E+00  0.000E+00  0.000E+00  0.000E+00  1.06682E+03  1.364E+00  7.455E+00  6.709E-02  1.682E+00
   1    5    8     3     5    1.0456E+00  1.5790E-01   8.8768E-01  0.000E+00  0.000E+00  0.000E+00  1.06362E+03  1.164E+00  6.655E+00  4.991E-02  1.582E+00
   1    6    8     3     6    8.8768E-01  5.5980E-02   8.3170E-01  0.000E+00  0.000E+00  0.000E+00  1.06158E+03  1.036E+00  6.145E+00  1.844E-02  1.518E+00
   1    5   10     4     1    1.0000E+01  9.0919E-02   9.9091E+00  0.000E+00  0.000E+00  0.000E+00  1.07836E+03  6.368E-01  1.000E+01  2.500E-02  1.212E+00
   1    5    9     4     2    9.9091E+00  1.8158E-01   9.7275E+00  0.000E+00  0.000E+00  0.000E+00  1.07154E+03  6.315E-01  1.000E+01  5.000E-02  1.211E+00
   1    6    8     4     3    9.7275E+00  1.2689E-01   9.6006E+00  0.000E+00  0.000E+00  0.000E+00  1.06381E+03  6.256E-01  1.000E+01  3.500E-02  1.209E+00
   1    6    8     5     1    1.0432E+01  2.2686E-01   1.0205E+01  0.000E+00  0.000E+00  0.000E+00  1.05868E+03  6.790E-01  1.542E+01  6.166E-02  1.226E+00
   1    7    7     5     2    1.0205E+01  2.7894E-01   9.9265E+00  0.000E+00  0.000E+00  0.000E+00  1.05417E+03  6.732E-01  1.519E+01  7.594E-02  1.224E+00
   1    8    7     5     3    9.9265E+00  1.9221E-01   9.7343E+00  0.000E+00  0.000E+00  0.000E+00  1.04992E+03  6.676E-01  1.497E+01  5.241E-02  1.223E+00
   1    8    6     5     4    9.7343E+00  1.3577E-01   9.5985E+00  0.000E+00  0.000E+00  0.000E+00  1.04691E+03  6.637E-01  1.482E+01  3.706E-02  1.221E+00
   1    9    6     6     1    9.5985E+00  2.2097E-01   9.3776E+00  0.000E+00  0.000E+00  0.000E+00  1.04341E+03  6.828E-01  1.200E+01  6.000E-02  1.228E+00
   1   10    7     6     2    9.3776E+00  2.2039E-01   9.1572E+00  0.000E+00  0.000E+00  0.000E+00  1.03885E+03  6.732E-01  1.200E+01  6.000E-02  1.224E+00
   1   11    7     6     3    9.1572E+00  2.1981E-01   8.9374E+00  0.000E+00  0.000E+00  0.000E+00  1.03430E+03  6.636E-01  1.200E+01  6.000E-02  1.221E+00
   1   12    7     6     4    8.9374E+00  2.1923E-01   8.7181E+00  0.000E+00  0.000E+00  0.000E+00  1.02974E+03  6.539E-01  1.200E+01  6.000E-02  1.218E+00
   1   13    7     6     5    8.7181E+00 -6.5687E-02   8.7838E+00  0.000E+00  0.000E+00  0.000E+00  1.02656E+03  6.504E-01  1.200E+01  2.400E-01 -9.123E-02
   1   14    9     7     1    1.5000E+02  1.3688E+00   1.4863E+02  0.000E+00  0.000E+00  0.000E+00  1.03987E+03  2.288E+00  5.529E+01  5.593E-01  8.158E-01
   1   13    8     7     2    1.4863E+02  1.9193E+00   1.4671E+02  0.000E+00  0.000E+00  0.000E+00  1.03478E+03  2.279E+00  5.526E+01  6.148E-01  1.041E+00
   1   13    7     7     3    1.4671E+02  1.5946E+00   1.4512E+02  0.000E+00  0.000E+00  0.000E+00  1.02969E+03  2.270E+00  5.521E+01  5.584E-01  9.519E-01
   1   13    6     8     1    1.5390E+02  9.4600E-01   1.5296E+02  0.000E+00  0.000E+00  0.000E+00  1.02472E+03  2.841E+00  4.119E+01  4.198E-01  7.512E-01
   1   13    5     8     2    1.5296E+02  2.0891E-01   1.5275E+02  0.000E+00  0.000E+00  0.000E+00  1.01846E+03  2.837E+00  4.113E+01  4.192E-01  1.661E-01
   1   13    4     8     3    1.5275E+02 -2.3696E+00   1.5512E+02  0.000E+00  0.000E+00  0.000E+00  1.01222E+03  2.844E+00  4.124E+01  4.203E+00 -1.879E-01
   1   13    3     8     4    1.5512E+02 -3.6445E+00   1.5876E+02  0.000E+00  0.000E+00  0.000E+00  1.00599E+03  2.865E+00  4.154E+01  4.233E+00 -2.870E-01
   1   13    2     8     5    1.5876E+02 -2.6448E+00   1.6141E+02  0.000E+00  0.000E+00  0.000E+00  9.99761E+02  2.886E+00  4.185E+01  4.265E+00 -2.067E-01
   1   13    1     8     6    1.6141E+02 -2.0169E+00   1.6342E+02  0.000E+00  0.000E+00  0.000E+00  9.94777E+02  2.902E+00  4.208E+01  2.573E+00 -2.613E-01
   1    8    6     9     1    1.3363E+01  0.0000E+00   1.3363E+01  0.000E+00  0.000E+00  0.000E+00  1.08145E+03  2.697E+00  4.000E+00  0.000E+00  1.899E+00
   1    8    5     9     2    1.3363E+01  0.0000E+00   1.3363E+01  0.000E+00  0.000E+00  0.000E+00  1.08095E+03  2.697E+00  4.000E+00  0.000E+00  1.899E+00





UNSATURATED ZONE PACKAGE VOLUMETRIC BUDGET FOR  TIME STEP    30 STRESS PERIOD   10
  ------------------------------------------------------------------------------



     CUMULATIVE VOLUMES      L**3       RATES FOR THIS TIME STEP      L**3/T
     ------------------                 ------------------------

           IN:                                      IN:
           ---                                      ---
        INFILTRATION =   588076517.4646          INFILTRATION =          19.0426

          OUT:                                     OUT:
          ----                                     ----
              UZF ET =   484362327.8408                UZF ET =          15.3575
        UZF RECHARGE =       73224.0000          UZF RECHARGE =       0.0000E+00

            IN - OUT =   103640965.6238              IN - OUT =           3.6851

          STORAGE:                                 STORAGE:
          --------                                 --------
      STORAGE CHANGE =   103640957.4050        STORAGE CHANGE =           3.6851

 PERCENT DISCREPANCY IS DIFFERENCE BETWEEN IN-OUT MINUS CHANGE IN STORAGE
 DIVIDED BY THE AVERAGE OF IN AND OUT TIMES 100

 PERCENT DISCREPANCY =           0.00     PERCENT DISCREPANCY =           0.00






1
  VOLUMETRIC BUDGET FOR AGRICULTURAL FIELDS AT  END OF TIME STEP   30, STRESS PERIOD  10
  ------------------------------------------------------------------------------

     CUMULATIVE VOLUMES      L**3       RATES FOR THIS TIME STEP      L**3/T
     ------------------                 ------------------------

           IN:                                      IN:
           ---                                      ---
               AG WELLS  =   266612848.0000                 AG WELLS  =           1.2715
      DIVERSION SEGMENTS =   217175360.0000        DIVERSION SEGMENTS =          13.3634
           GW IRRIGATION =           0.0000             GW IRRIGATION =           0.0000
           SW IRRIGATION =           0.0000             SW IRRIGATION =           0.0000
        SYSTEM LOSSES GW =           0.0000          SYSTEM LOSSES GW =           0.0000
        SYSTEM LOSSES SW =           0.0000          SYSTEM LOSSES SW =           0.0000

                TOTAL IN =   483788224.0000                  TOTAL IN =          14.6348

          OUT:                                     OUT:
          ----                                     ----
               AG WELLS  =           0.0000                 AG WELLS  =           0.0000
      DIVERSION SEGMENTS =           0.0000        DIVERSION SEGMENTS =           0.0000
           GW IRRIGATION =   266612848.0000             GW IRRIGATION =           1.2715
           SW IRRIGATION =   217179728.0000             SW IRRIGATION =          13.3636
        SYSTEM LOSSES GW =           0.0000          SYSTEM LOSSES GW =           0.0000
        SYSTEM LOSSES SW =           0.0000          SYSTEM LOSSES SW =           0.0000

               TOTAL OUT =   483792576.0000                 TOTAL OUT =          14.6351

                IN - OUT =       -4352.0000                  IN - OUT =      -2.6703E-04

     PERCENT DISCREPANCY =          -0.00         PERCENT DISCREPANCY =          -0.00



1
  VOLUMETRIC BUDGET FOR ENTIRE MODEL AT END OF TIME STEP   30, STRESS PERIOD  10
  ------------------------------------------------------------------------------

     CUMULATIVE VOLUMES      L**3       RATES FOR THIS TIME STEP      L**3/T
     ------------------                 ------------------------

           IN:                                      IN:
           ---                                      ---
             STORAGE     =   330028128.0000               STORAGE     =          12.5237
       CONSTANT HEAD     =           0.0000         CONSTANT HEAD     =           0.0000
     HEAD DEP BOUNDS     =     6839597.0000       HEAD DEP BOUNDS     =           0.2880
      STREAM LEAKAGE     =   281135392.0000        STREAM LEAKAGE     =          11.5810
        UZF RECHARGE     =       73223.9531          UZF RECHARGE     =           0.0000
               GW ET     =           0.0000                 GW ET     =           0.0000
     SURFACE LEAKAGE     =           0.0000       SURFACE LEAKAGE     =           0.0000
           AG WELLS      =           0.0000             AG WELLS      =           0.0000

                TOTAL IN =   618076288.0000                  TOTAL IN =          24.3927

          OUT:                                     OUT:
          ----                                     ----
             STORAGE     =    98713912.0000               STORAGE     =          12.0923
       CONSTANT HEAD     =           0.0000         CONSTANT HEAD     =           0.0000
     HEAD DEP BOUNDS     =     6843506.0000       HEAD DEP BOUNDS     =           0.2873
      STREAM LEAKAGE     =   245908560.0000        STREAM LEAKAGE     =          10.7415
        UZF RECHARGE     =           0.0000          UZF RECHARGE     =           0.0000
               GW ET     =           0.0000                 GW ET     =           0.0000
     SURFACE LEAKAGE     =           0.0000       SURFACE LEAKAGE     =           0.0000
           AG WELLS      =   266612848.0000             AG WELLS      =           1.2715

               TOTAL OUT =   618078848.0000                 TOTAL OUT =          24.3926

                IN - OUT =       -2560.0000                  IN - OUT =       7.4387E-05

     PERCENT DISCREPANCY =          -0.00         PERCENT DISCREPANCY =           0.00






         TIME SUMMARY AT END OF TIME STEP   30 IN STRESS PERIOD   10
                    SECONDS     MINUTES      HOURS       DAYS        YEARS
                    -----------------------------------------------------------
   TIME STEP LENGTH  87667.      1461.1      24.352      1.0147     2.77799E-03
 STRESS PERIOD TIME 2.63000E+06  43833.      730.56      30.440     8.33397E-02
         TOTAL TIME 2.37564E+07 3.95940E+05  6599.0      274.96     0.75279    
1
1
                            STRESS PERIOD NO.   11, LENGTH =   2630000.    
                            -----------------------------------------------

                              NUMBER OF TIME STEPS =    30

                               MULTIPLIER FOR DELT =     1.000

                            INITIAL TIME STEP SIZE =   87666.66    

 REUSING NON-PARAMETER GHB CELLS FROM LAST STRESS PERIOD

      2 GHB CELLS

 REUSING STREAM SEGMENT DATA FROM LAST STRESS PERIOD



            AREAL INFILTRATION RATE
 READING ON UNIT   19 WITH FORMAT: (10F4.0)            

            1           2           3           4           5           6           7           8           9          10
 ........................................................................................................................
   1   1.2000E-09   0.000       0.000       0.000       0.000       0.000       0.000       0.000       0.000       0.000    
   2   2.1000E-09  2.0000E-09  8.0000E-10  8.5000E-09   0.000       0.000       0.000       0.000       0.000       0.000    
   3   5.0000E-10  1.1000E-09  8.8000E-09  5.5000E-09   0.000       0.000       0.000       0.000       0.000       0.000    
   4   8.5000E-09  1.1000E-09  1.1000E-09  1.1000E-09  2.0000E-09   0.000       0.000       0.000       0.000       0.000    
   5   8.5000E-09  1.1000E-09  1.1000E-09  1.1000E-09  1.1000E-09   0.000       0.000       0.000       0.000       0.000    
   6   8.5000E-09  5.2000E-09  2.1000E-09  1.1000E-09  1.5000E-09   0.000       0.000       0.000       0.000       0.000    
   7   8.5000E-09  5.2000E-09  2.1000E-09  1.2000E-09  2.0000E-09   0.000       0.000       0.000       0.000       0.000    
   8   5.0000E-10  5.2000E-09  2.1000E-09  1.2000E-09  5.0000E-09   0.000       0.000       0.000       0.000       0.000    
   9   5.0000E-10  5.2000E-09  2.1000E-09  1.2000E-09  5.0000E-09   0.000       0.000       0.000       0.000       0.000    
  10   5.0000E-10  5.2000E-09  2.1000E-09  1.2000E-09  5.8000E-09   0.000       0.000       0.000       0.000       0.000    
  11   1.0000E-10  1.1000E-09  1.1000E-09  1.2000E-09  5.0000E-09   0.000       0.000       0.000       0.000       0.000    
  12   1.1000E-09  1.1000E-09  1.1000E-09  1.1000E-09  2.0000E-09   0.000       0.000       0.000       0.000       0.000    
  13   1.1000E-09  2.2000E-09  2.2000E-09  2.1000E-09  1.0000E-09   0.000       0.000       0.000       0.000       0.000    
  14   2.0000E-10  5.5000E-09  5.5000E-09  5.2000E-09  1.0000E-09   0.000       0.000       0.000       0.000       0.000    
  15    0.000      8.8000E-09  8.8000E-09   0.000       0.000       0.000       0.000       0.000       0.000       0.000    

                  ET RATE =  5.000000E-09

 USING ET EXTINCTION DEPTH FROM PREVIOUS STRESS PERIOD. CURRENT PERIOD IS:      11

 USING EXTINCTION WATER CONTENT FROM PREVIOUS STRESS PERIOD. CURRENT PERIOD IS:      11

 USING AIR ENTRY PRESSURE FROM PREVIOUS STRESS PERIOD. CURRENT PERIOD IS:      11

 USING ROOT PRESSURE HEAD FROM PREVIOUS STRESS PERIOD. CURRENT PERIOD IS:      11

 USING ROOT ACTIVITY FROM PREVIOUS STRESS PERIOD. CURRENT PERIOD IS:      11

 PROCESSING AG STRESS PERIOD DATA

 READING AG STRESS PERIOD DATA

 READING IRRIGATION SEGMENT

 READING IRRIGATION WELL

 READING SUPPLEMENTAL WELL

 END PROCESSING AG STRESS PERIOD DATA OPTIONS
 
 SOLVING FOR HEAD 
                                                   Max.-Head-Change                         Max.-Flux-Residual
  Residual-Control   Outer-Iter.   Inner-Iter.     Column Row Layer    Maximum-Head-Change  Column Row Layer    Maximum-Flux-Residual          L2-NORM 
          0                 1           2             4    7     1       0.5091988447E-01       4    7    1         0.2681107041E+01      0.5712961458E+01
          0                 2           2             4    7     1      -0.4953154400E-02       4    7    1        -0.2681133138E+00      0.5723224242E+00
          0                 3           2             4    7     1       0.3372910790E-03       4    7    1         0.1876791538E-01      0.4005944411E-01
          0                 4           1             4    7     1      -0.1342112919E-04       4    7    1        -0.7676089176E-03      0.1638236719E-02

    ------------------------------------------------
       NWT REQUIRED            4 OUTER ITERATIONS 
       AND A TOTAL OF          7 INNER ITERATIONS.
    ------------------------------------------------

 NO OUTPUT CONTROL FOR STRESS PERIOD   11   TIME STEP    1
 
 SOLVING FOR HEAD 
                                                   Max.-Head-Change                         Max.-Flux-Residual
  Residual-Control   Outer-Iter.   Inner-Iter.     Column Row Layer    Maximum-Head-Change  Column Row Layer    Maximum-Flux-Residual          L2-NORM 
          0                 1           2             4    7     1       0.5023949307E-01       4    7    1         0.2645696427E+01      0.5606413221E+01
          0                 2           2             4    7     1      -0.4886970861E-02       4    7    1        -0.2645722508E+00      0.5606306688E+00
          0                 3           2             4    7     1       0.3327842252E-03       4    7    1         0.1852004087E-01      0.3924313732E-01
          0                 4           1             4    7     1      -0.1324179734E-04       4    7    1        -0.7574708407E-03      0.1604979359E-02

    ------------------------------------------------
       NWT REQUIRED            4 OUTER ITERATIONS 
       AND A TOTAL OF          7 INNER ITERATIONS.
    ------------------------------------------------

 NO OUTPUT CONTROL FOR STRESS PERIOD   11   TIME STEP    2
 
 SOLVING FOR HEAD 
                                                   Max.-Head-Change                         Max.-Flux-Residual
  Residual-Control   Outer-Iter.   Inner-Iter.     Column Row Layer    Maximum-Head-Change  Column Row Layer    Maximum-Flux-Residual          L2-NORM 
          0                 1           2             4    7     1       0.4956089627E-01       4    7    1         0.2610338944E+01      0.5503777410E+01
          0                 2           2             4    7     1      -0.4820961798E-02       4    7    1        -0.2610364947E+00      0.5503688406E+00
          0                 3           2             4    7     1       0.3282892539E-03       4    7    1         0.1827253791E-01      0.3852496168E-01
          0                 4           1             4    7     1      -0.1306293832E-04       4    7    1        -0.7473479614E-03      0.1575621252E-02

    ------------------------------------------------
       NWT REQUIRED            4 OUTER ITERATIONS 
       AND A TOTAL OF          7 INNER ITERATIONS.
    ------------------------------------------------

 NO OUTPUT CONTROL FOR STRESS PERIOD   11   TIME STEP    3
 
 SOLVING FOR HEAD 
                                                   Max.-Head-Change                         Max.-Flux-Residual
  Residual-Control   Outer-Iter.   Inner-Iter.     Column Row Layer    Maximum-Head-Change  Column Row Layer    Maximum-Flux-Residual          L2-NORM 
          0                 1           2             4    7     1       0.4888493444E-01       4    7    1         0.2575081786E+01      0.5404378127E+01
          0                 2           2             4    7     1      -0.4755208965E-02       4    7    1        -0.2575107658E+00      0.5404301692E+00
          0                 3           2             4    7     1       0.3238117316E-03       4    7    1         0.1802573690E-01      0.3782935704E-01
          0                 4           1             4    7     1      -0.1288477341E-04       4    7    1        -0.7372537912E-03      0.1547159009E-02

    ------------------------------------------------
       NWT REQUIRED            4 OUTER ITERATIONS 
       AND A TOTAL OF          7 INNER ITERATIONS.
    ------------------------------------------------

 NO OUTPUT CONTROL FOR STRESS PERIOD   11   TIME STEP    4
 
 SOLVING FOR HEAD 
                                                   Max.-Head-Change                         Max.-Flux-Residual
  Residual-Control   Outer-Iter.   Inner-Iter.     Column Row Layer    Maximum-Head-Change  Column Row Layer    Maximum-Flux-Residual          L2-NORM 
          0                 1           2             4    7     1       0.4821225319E-01       4    7    1         0.2539961231E+01      0.5308054802E+01
          0                 2           2             4    7     1      -0.4689775170E-02       4    7    1        -0.2539986922E+00      0.5307990965E+00
          0                 3           2             4    7     1       0.3193559355E-03       4    7    1         0.1777989184E-01      0.3715531237E-01
          0                 4           1             4    7     1      -0.1270747322E-04       4    7    1        -0.7271987133E-03      0.1519614156E-02

    ------------------------------------------------
       NWT REQUIRED            4 OUTER ITERATIONS 
       AND A TOTAL OF          7 INNER ITERATIONS.
    ------------------------------------------------

 NO OUTPUT CONTROL FOR STRESS PERIOD   11   TIME STEP    5
 
 SOLVING FOR HEAD 
                                                   Max.-Head-Change                         Max.-Flux-Residual
  Residual-Control   Outer-Iter.   Inner-Iter.     Column Row Layer    Maximum-Head-Change  Column Row Layer    Maximum-Flux-Residual          L2-NORM 
          0                 1           2             4    7     1       0.4754343182E-01       4    7    1         0.2505010752E+01      0.5214646276E+01
          0                 2           2             4    7     1      -0.4624716774E-02       4    7    1        -0.2505036220E+00      0.5214597013E+00
          0                 3           2             4    7     1       0.3149257024E-03       4    7    1         0.1753523701E-01      0.3650162075E-01
          0                 4           1             4    7     1      -0.1253118961E-04       4    7    1        -0.7171922966E-03      0.1492886790E-02

    ------------------------------------------------
       NWT REQUIRED            4 OUTER ITERATIONS 
       AND A TOTAL OF          7 INNER ITERATIONS.
    ------------------------------------------------

 NO OUTPUT CONTROL FOR STRESS PERIOD   11   TIME STEP    6
 
 SOLVING FOR HEAD 
                                                   Max.-Head-Change                         Max.-Flux-Residual
  Residual-Control   Outer-Iter.   Inner-Iter.     Column Row Layer    Maximum-Head-Change  Column Row Layer    Maximum-Flux-Residual          L2-NORM 
          0                 1           2             4    7     1       0.4687913477E-01       4    7    1         0.2470267686E+01      0.5124024406E+01
          0                 2           2             4    7     1      -0.4560098415E-02       4    7    1        -0.2470292895E+00      0.5123979899E+00
          0                 3           2             4    7     1       0.3105254359E-03       4    7    1         0.1729203390E-01      0.3586738063E-01
          0                 4           1             4    7     1      -0.1235609930E-04       4    7    1        -0.7072452909E-03      0.1466954469E-02

    ------------------------------------------------
       NWT REQUIRED            4 OUTER ITERATIONS 
       AND A TOTAL OF          7 INNER ITERATIONS.
    ------------------------------------------------

 NO OUTPUT CONTROL FOR STRESS PERIOD   11   TIME STEP    7
 
 SOLVING FOR HEAD 
                                                   Max.-Head-Change                         Max.-Flux-Residual
  Residual-Control   Outer-Iter.   Inner-Iter.     Column Row Layer    Maximum-Head-Change  Column Row Layer    Maximum-Flux-Residual          L2-NORM 
          0                 1           2             4    7     1       0.4621957094E-01       4    7    1         0.2435744582E+01      0.5036051962E+01
          0                 2           2             4    7     1      -0.4495940418E-02       4    7    1        -0.2435769499E+00      0.5036015344E+00
          0                 3           2             4    7     1       0.3061565180E-03       4    7    1         0.1705037029E-01      0.3525171212E-01
          0                 4           1             4    7     1      -0.1218225593E-04       4    7    1        -0.6973612262E-03      0.1441782197E-02

    ------------------------------------------------
       NWT REQUIRED            4 OUTER ITERATIONS 
       AND A TOTAL OF          7 INNER ITERATIONS.
    ------------------------------------------------

 NO OUTPUT CONTROL FOR STRESS PERIOD   11   TIME STEP    8
 
 SOLVING FOR HEAD 
                                                   Max.-Head-Change                         Max.-Flux-Residual
  Residual-Control   Outer-Iter.   Inner-Iter.     Column Row Layer    Maximum-Head-Change  Column Row Layer    Maximum-Flux-Residual          L2-NORM 
          0                 1           2             4    7     1       0.4556531803E-01       4    7    1         0.2401474174E+01      0.4950610332E+01
          0                 2           2             4    7     1      -0.4432298988E-02       4    7    1        -0.2401498769E+00      0.4950580576E+00
          0                 3           2             4    7     1       0.3018227774E-03       4    7    1         0.1681047539E-01      0.3465369908E-01
          0                 4           1             4    7     1      -0.1200981240E-04       4    7    1        -0.6875495183E-03      0.1417309907E-02

    ------------------------------------------------
       NWT REQUIRED            4 OUTER ITERATIONS 
       AND A TOTAL OF          7 INNER ITERATIONS.
    ------------------------------------------------

 NO OUTPUT CONTROL FOR STRESS PERIOD   11   TIME STEP    9
 
 SOLVING FOR HEAD 
                                                   Max.-Head-Change                         Max.-Flux-Residual
  Residual-Control   Outer-Iter.   Inner-Iter.     Column Row Layer    Maximum-Head-Change  Column Row Layer    Maximum-Flux-Residual          L2-NORM 
          0                 1           2             4    7     1       0.4491690049E-01       4    7    1         0.2367486416E+01      0.4867590905E+01
          0                 2           2             4    7     1      -0.4369225143E-02       4    7    1        -0.2367510665E+00      0.4867552282E+00
          0                 3           2             4    7     1       0.2975276870E-03       4    7    1         0.1657255888E-01      0.3407255060E-01
          0                 4           1             4    7     1      -0.1183890651E-04       4    7    1        -0.6778187048E-03      0.1393549403E-02

    ------------------------------------------------
       NWT REQUIRED            4 OUTER ITERATIONS 
       AND A TOTAL OF          7 INNER ITERATIONS.
    ------------------------------------------------

 NO OUTPUT CONTROL FOR STRESS PERIOD   11   TIME STEP   10
 
 SOLVING FOR HEAD 
                                                   Max.-Head-Change                         Max.-Flux-Residual
  Residual-Control   Outer-Iter.   Inner-Iter.     Column Row Layer    Maximum-Head-Change  Column Row Layer    Maximum-Flux-Residual          L2-NORM 
          0                 1           2             4    7     1       0.4427453023E-01       4    7    1         0.2333793897E+01      0.4786877282E+01
          0                 2           2             4    7     1      -0.4306739502E-02       4    7    1        -0.2333817780E+00      0.4786858229E+00
          0                 3           2             4    7     1       0.2932726517E-03       4    7    1         0.1633670892E-01      0.3350775185E-01
          0                 4           1             4    7     1      -0.1166959480E-04       4    7    1        -0.6681724321E-03      0.1370452241E-02

    ------------------------------------------------
       NWT REQUIRED            4 OUTER ITERATIONS 
       AND A TOTAL OF          7 INNER ITERATIONS.
    ------------------------------------------------

 NO OUTPUT CONTROL FOR STRESS PERIOD   11   TIME STEP   11
 
 SOLVING FOR HEAD 
                                                   Max.-Head-Change                         Max.-Flux-Residual
  Residual-Control   Outer-Iter.   Inner-Iter.     Column Row Layer    Maximum-Head-Change  Column Row Layer    Maximum-Flux-Residual          L2-NORM 
          0                 1           2             4    7     1       0.4363852312E-01       4    7    1         0.2300414906E+01      0.4708384149E+01
          0                 2           2             4    7     1      -0.4244872795E-02       4    7    1        -0.2300438403E+00      0.4708369493E+00
          0                 3           2             4    7     1       0.2890597639E-03       4    7    1         0.1610305356E-01      0.3295839895E-01
          0                 4           1             4    7     1      -0.1150195992E-04       4    7    1        -0.6586159075E-03      0.1348026389E-02

    ------------------------------------------------
       NWT REQUIRED            4 OUTER ITERATIONS 
       AND A TOTAL OF          7 INNER ITERATIONS.
    ------------------------------------------------

 NO OUTPUT CONTROL FOR STRESS PERIOD   11   TIME STEP   12
 
 SOLVING FOR HEAD 
                                                   Max.-Head-Change                         Max.-Flux-Residual
  Residual-Control   Outer-Iter.   Inner-Iter.     Column Row Layer    Maximum-Head-Change  Column Row Layer    Maximum-Flux-Residual          L2-NORM 
          0                 1           2             4    7     1       0.4300928708E-01       4    7    1         0.2267373125E+01      0.4632003069E+01
          0                 2           2             4    7     1      -0.4183664707E-02       4    7    1        -0.2267396223E+00      0.4631992057E+00
          0                 3           2             4    7     1       0.2848917256E-03       4    7    1         0.1587175858E-01      0.3242376190E-01
          0                 4           1             4    7     1      -0.1133610974E-04       4    7    1        -0.6491559298E-03      0.1326125881E-02

    ------------------------------------------------
       NWT REQUIRED            4 OUTER ITERATIONS 
       AND A TOTAL OF          7 INNER ITERATIONS.
    ------------------------------------------------

 NO OUTPUT CONTROL FOR STRESS PERIOD   11   TIME STEP   13
 
 SOLVING FOR HEAD 
                                                   Max.-Head-Change                         Max.-Flux-Residual
  Residual-Control   Outer-Iter.   Inner-Iter.     Column Row Layer    Maximum-Head-Change  Column Row Layer    Maximum-Flux-Residual          L2-NORM 
          0                 1           2             4    7     1       0.4238706507E-01       4    7    1         0.2234682402E+01      0.4557660550E+01
          0                 2           2             4    7     1      -0.4123138873E-02       4    7    1        -0.2234705088E+00      0.4557653028E+00
          0                 3           2             4    7     1       0.2807701463E-03       4    7    1         0.1564292091E-01      0.3190341545E-01
          0                 4           1             4    7     1      -0.1117210817E-04       4    7    1        -0.6397964453E-03      0.1304825557E-02

    ------------------------------------------------
       NWT REQUIRED            4 OUTER ITERATIONS 
       AND A TOTAL OF          7 INNER ITERATIONS.
    ------------------------------------------------

 NO OUTPUT CONTROL FOR STRESS PERIOD   11   TIME STEP   14
 
 SOLVING FOR HEAD 
                                                   Max.-Head-Change                         Max.-Flux-Residual
  Residual-Control   Outer-Iter.   Inner-Iter.     Column Row Layer    Maximum-Head-Change  Column Row Layer    Maximum-Flux-Residual          L2-NORM 
          0                 1           2             4    7     1       0.4177193299E-01       4    7    1         0.2202348027E+01      0.4485265481E+01
          0                 2           2             4    7     1      -0.4063302682E-02       4    7    1        -0.2202370292E+00      0.4485260549E+00
          0                 3           2             4    7     1       0.2766955295E-03       4    7    1         0.1541657763E-01      0.3139670347E-01
          0                 4           1             4    7     1      -0.1100997536E-04       4    7    1        -0.6305389961E-03      0.1284117875E-02

    ------------------------------------------------
       NWT REQUIRED            4 OUTER ITERATIONS 
       AND A TOTAL OF          7 INNER ITERATIONS.
    ------------------------------------------------

 NO OUTPUT CONTROL FOR STRESS PERIOD   11   TIME STEP   15
 
 SOLVING FOR HEAD 
                                                   Max.-Head-Change                         Max.-Flux-Residual
  Residual-Control   Outer-Iter.   Inner-Iter.     Column Row Layer    Maximum-Head-Change  Column Row Layer    Maximum-Flux-Residual          L2-NORM 
          0                 1           2             4    7     1       0.4116420915E-01       4    7    1         0.2170388549E+01      0.4414738761E+01
          0                 2           2             4    7     1      -0.4004187099E-02       4    7    1        -0.2170410385E+00      0.4414735973E+00
          0                 3           2             4    7     1       0.2726699839E-03       4    7    1         0.1519285860E-01      0.3090304739E-01
          0                 4           1             4    7     1      -0.1084979522E-04       4    7    1        -0.6213888860E-03      0.1263959207E-02

    ------------------------------------------------
       NWT REQUIRED            4 OUTER ITERATIONS 
       AND A TOTAL OF          7 INNER ITERATIONS.
    ------------------------------------------------

 NO OUTPUT CONTROL FOR STRESS PERIOD   11   TIME STEP   16
 
 SOLVING FOR HEAD 
                                                   Max.-Head-Change                         Max.-Flux-Residual
  Residual-Control   Outer-Iter.   Inner-Iter.     Column Row Layer    Maximum-Head-Change  Column Row Layer    Maximum-Flux-Residual          L2-NORM 
          0                 1           2             4    7     1       0.4056418072E-01       4    7    1         0.2138820473E+01      0.4346017835E+01
          0                 2           2             4    7     1      -0.3945820060E-02       4    7    1        -0.2138841874E+00      0.4346017071E+00
          0                 3           2             4    7     1       0.2686954108E-03       4    7    1         0.1497187933E-01      0.3042202660E-01
          0                 4           1             4    7     1      -0.1069164305E-04       4    7    1        -0.6123508069E-03      0.1244258144E-02

    ------------------------------------------------
       NWT REQUIRED            4 OUTER ITERATIONS 
       AND A TOTAL OF          7 INNER ITERATIONS.
    ------------------------------------------------

 NO OUTPUT CONTROL FOR STRESS PERIOD   11   TIME STEP   17
 
 SOLVING FOR HEAD 
                                                   Max.-Head-Change                         Max.-Flux-Residual
  Residual-Control   Outer-Iter.   Inner-Iter.     Column Row Layer    Maximum-Head-Change  Column Row Layer    Maximum-Flux-Residual          L2-NORM 
          0                 1           2             4    7     1       0.3997170462E-01       4    7    1         0.2107636766E+01      0.4279016833E+01
          0                 2           2             4    7     1      -0.3888187651E-02       4    7    1        -0.2107657728E+00      0.4279017807E+00
          0                 3           2             4    7     1       0.2647708639E-03       4    7    1         0.1475359064E-01      0.2995305078E-01
          0                 4           1             4    7     1      -0.1053548179E-04       4    7    1        -0.6034227890E-03      0.1225072563E-02

    ------------------------------------------------
       NWT REQUIRED            4 OUTER ITERATIONS 
       AND A TOTAL OF          7 INNER ITERATIONS.
    ------------------------------------------------

 NO OUTPUT CONTROL FOR STRESS PERIOD   11   TIME STEP   18
 
 SOLVING FOR HEAD 
                                                   Max.-Head-Change                         Max.-Flux-Residual
  Residual-Control   Outer-Iter.   Inner-Iter.     Column Row Layer    Maximum-Head-Change  Column Row Layer    Maximum-Flux-Residual          L2-NORM 
          0                 1           2             4    7     1       0.3938702904E-01       4    7    1         0.2076851934E+01      0.4213685398E+01
          0                 2           2             4    7     1      -0.3831314016E-02       4    7    1        -0.2076872454E+00      0.4213687806E+00
          0                 3           2             4    7     1       0.2608979867E-03       4    7    1         0.1453809405E-01      0.2949574966E-01
          0                 4           1             4    7     1      -0.1038137659E-04       4    7    1        -0.5946089773E-03      0.1206372451E-02

    ------------------------------------------------
       NWT REQUIRED            4 OUTER ITERATIONS 
       AND A TOTAL OF          7 INNER ITERATIONS.
    ------------------------------------------------

 NO OUTPUT CONTROL FOR STRESS PERIOD   11   TIME STEP   19
 
 SOLVING FOR HEAD 
                                                   Max.-Head-Change                         Max.-Flux-Residual
  Residual-Control   Outer-Iter.   Inner-Iter.     Column Row Layer    Maximum-Head-Change  Column Row Layer    Maximum-Flux-Residual          L2-NORM 
          0                 1           2             4    7     1       0.3881037607E-01       4    7    1         0.2046478845E+01      0.4149955040E+01
          0                 2           2             4    7     1      -0.3775220761E-02       4    7    1        -0.2046498923E+00      0.4149958616E+00
          0                 3           2             4    7     1       0.2570782498E-03       4    7    1         0.1432547965E-01      0.2904965770E-01
          0                 4           1             4    7     1      -0.1022938490E-04       4    7    1        -0.5859130079E-03      0.1188129559E-02

    ------------------------------------------------
       NWT REQUIRED            4 OUTER ITERATIONS 
       AND A TOTAL OF          7 INNER ITERATIONS.
    ------------------------------------------------

 NO OUTPUT CONTROL FOR STRESS PERIOD   11   TIME STEP   20
 
 SOLVING FOR HEAD 
                                                   Max.-Head-Change                         Max.-Flux-Residual
  Residual-Control   Outer-Iter.   Inner-Iter.     Column Row Layer    Maximum-Head-Change  Column Row Layer    Maximum-Flux-Residual          L2-NORM 
          0                 1           2             4    7     1       0.3824167057E-01       4    7    1         0.2016514398E+01      0.4087769437E+01
          0                 2           2             4    7     1      -0.3719900578E-02       4    7    1        -0.2016534034E+00      0.4087774065E+00
          0                 3           2             4    7     1       0.2533111572E-03       4    7    1         0.1411572576E-01      0.2861438278E-01
          0                 4           1             4    7     1      -0.1007948934E-04       4    7    1        -0.5773340822E-03      0.1170332746E-02

    ------------------------------------------------
       NWT REQUIRED            4 OUTER ITERATIONS 
       AND A TOTAL OF          7 INNER ITERATIONS.
    ------------------------------------------------

 NO OUTPUT CONTROL FOR STRESS PERIOD   11   TIME STEP   21
 
 SOLVING FOR HEAD 
                                                   Max.-Head-Change                         Max.-Flux-Residual
  Residual-Control   Outer-Iter.   Inner-Iter.     Column Row Layer    Maximum-Head-Change  Column Row Layer    Maximum-Flux-Residual          L2-NORM 
          0                 1           2             4    7     1       0.3768096034E-01       4    7    1         0.1986962006E+01      0.4027068801E+01
          0                 2           2             4    7     1      -0.3665358118E-02       4    7    1        -0.1986981201E+00      0.4027074177E+00
          0                 3           2             4    7     1       0.2495970240E-03       4    7    1         0.1390885626E-01      0.2818948606E-01
          0                 4           1             4    7     1      -0.9931700382E-05       4    7    1        -0.5688730998E-03      0.1152954057E-02

    ------------------------------------------------
       NWT REQUIRED            4 OUTER ITERATIONS 
       AND A TOTAL OF          7 INNER ITERATIONS.
    ------------------------------------------------

 NO OUTPUT CONTROL FOR STRESS PERIOD   11   TIME STEP   22
 
 SOLVING FOR HEAD 
                                                   Max.-Head-Change                         Max.-Flux-Residual
  Residual-Control   Outer-Iter.   Inner-Iter.     Column Row Layer    Maximum-Head-Change  Column Row Layer    Maximum-Flux-Residual          L2-NORM 
          0                 1           2             4    7     1       0.3712855319E-01       4    7    1         0.1957838768E+01      0.3967818153E+01
          0                 2           2             4    7     1      -0.3611623326E-02       4    7    1        -0.1957857525E+00      0.3967824165E+00
          0                 3           2             4    7     1       0.2459378900E-03       4    7    1         0.1370499085E-01      0.2777474375E-01
          0                 4           1             4    7     1      -0.9786099888E-05       4    7    1        -0.5605349847E-03      0.1135984160E-02

    ------------------------------------------------
       NWT REQUIRED            4 OUTER ITERATIONS 
       AND A TOTAL OF          7 INNER ITERATIONS.
    ------------------------------------------------

 NO OUTPUT CONTROL FOR STRESS PERIOD   11   TIME STEP   23
 
 SOLVING FOR HEAD 
                                                   Max.-Head-Change                         Max.-Flux-Residual
  Residual-Control   Outer-Iter.   Inner-Iter.     Column Row Layer    Maximum-Head-Change  Column Row Layer    Maximum-Flux-Residual          L2-NORM 
          0                 1           2             4    7     1       0.3658418031E-01       4    7    1         0.1929131404E+01      0.3909942385E+01
          0                 2           2             4    7     1      -0.3558670052E-02       4    7    1        -0.1929149725E+00      0.3909949014E+00
          0                 3           2             4    7     1       0.2423319748E-03       4    7    1         0.1350403657E-01      0.2736963411E-01
          0                 4           1             4    7     1      -0.9642617395E-05       4    7    1        -0.5523159525E-03      0.1119418925E-02

    ------------------------------------------------
       NWT REQUIRED            4 OUTER ITERATIONS 
       AND A TOTAL OF          7 INNER ITERATIONS.
    ------------------------------------------------

 NO OUTPUT CONTROL FOR STRESS PERIOD   11   TIME STEP   24
 
 SOLVING FOR HEAD 
                                                   Max.-Head-Change                         Max.-Flux-Residual
  Residual-Control   Outer-Iter.   Inner-Iter.     Column Row Layer    Maximum-Head-Change  Column Row Layer    Maximum-Flux-Residual          L2-NORM 
          0                 1           2             4    7     1       0.3604798424E-01       4    7    1         0.1900847906E+01      0.3853408078E+01
          0                 2           2             4    7     1      -0.3506512166E-02       4    7    1        -0.1900865797E+00      0.3853415114E+00
          0                 3           2             4    7     1       0.2387802220E-03       4    7    1         0.1330604940E-01      0.2697388732E-01
          0                 4           1             4    7     1      -0.9501289401E-05       4    7    1        -0.5442182523E-03      0.1103228994E-02

    ------------------------------------------------
       NWT REQUIRED            4 OUTER ITERATIONS 
       AND A TOTAL OF          7 INNER ITERATIONS.
    ------------------------------------------------

 NO OUTPUT CONTROL FOR STRESS PERIOD   11   TIME STEP   25
 
 SOLVING FOR HEAD 
                                                   Max.-Head-Change                         Max.-Flux-Residual
  Residual-Control   Outer-Iter.   Inner-Iter.     Column Row Layer    Maximum-Head-Change  Column Row Layer    Maximum-Flux-Residual          L2-NORM 
          0                 1           2             4    7     1       0.3551981603E-01       4    7    1         0.1872981045E+01      0.3798166160E+01
          0                 2           2             4    7     1      -0.3455135176E-02       4    7    1        -0.1872998508E+00      0.3798173480E+00
          0                 3           2             4    7     1       0.2352816453E-03       4    7    1         0.1311097868E-01      0.2658720281E-01
          0                 4           1             4    7     1      -0.9362078143E-05       4    7    1        -0.5362398456E-03      0.1087419444E-02

    ------------------------------------------------
       NWT REQUIRED            4 OUTER ITERATIONS 
       AND A TOTAL OF          7 INNER ITERATIONS.
    ------------------------------------------------

 NO OUTPUT CONTROL FOR STRESS PERIOD   11   TIME STEP   26
 
 SOLVING FOR HEAD 
                                                   Max.-Head-Change                         Max.-Flux-Residual
  Residual-Control   Outer-Iter.   Inner-Iter.     Column Row Layer    Maximum-Head-Change  Column Row Layer    Maximum-Flux-Residual          L2-NORM 
          0                 1           2             4    7     1       0.3500006127E-01       4    7    1         0.1845552346E+01      0.3744183053E+01
          0                 2           2             4    7     1      -0.3404576595E-02       4    7    1        -0.1845569389E+00      0.3744190648E+00
          0                 3           2             4    7     1       0.2318387998E-03       4    7    1         0.1291897517E-01      0.2620932802E-01
          0                 4           1             4    7     1      -0.9225084127E-05       4    7    1        -0.5283869050E-03      0.1071964790E-02

    ------------------------------------------------
       NWT REQUIRED            4 OUTER ITERATIONS 
       AND A TOTAL OF          7 INNER ITERATIONS.
    ------------------------------------------------

 NO OUTPUT CONTROL FOR STRESS PERIOD   11   TIME STEP   27
 
 SOLVING FOR HEAD 
                                                   Max.-Head-Change                         Max.-Flux-Residual
  Residual-Control   Outer-Iter.   Inner-Iter.     Column Row Layer    Maximum-Head-Change  Column Row Layer    Maximum-Flux-Residual          L2-NORM 
          0                 1           2             4    7     1       0.3448826714E-01       4    7    1         0.1818537927E+01      0.3691403124E+01
          0                 2           2             4    7     1      -0.3354792374E-02       4    7    1        -0.1818554554E+00      0.3691410897E+00
          0                 3           2             4    7     1       0.2284486847E-03       4    7    1         0.1272987165E-01      0.2583994540E-01
          0                 4           1             4    7     1      -0.9090187851E-05       4    7    1        -0.5206525320E-03      0.1057546100E-02

    ------------------------------------------------
       NWT REQUIRED            4 OUTER ITERATIONS 
       AND A TOTAL OF          7 INNER ITERATIONS.
    ------------------------------------------------

 NO OUTPUT CONTROL FOR STRESS PERIOD   11   TIME STEP   28
 
 SOLVING FOR HEAD 
                                                   Max.-Head-Change                         Max.-Flux-Residual
  Residual-Control   Outer-Iter.   Inner-Iter.     Column Row Layer    Maximum-Head-Change  Column Row Layer    Maximum-Flux-Residual          L2-NORM 
          0                 1           2             4    7     1       0.3398466680E-01       4    7    1         0.1791950874E+01      0.3639803155E+01
          0                 2           2             4    7     1      -0.3305805195E-02       4    7    1        -0.1791967092E+00      0.3639810991E+00
          0                 3           2             4    7     1       0.2251128452E-03       4    7    1         0.1254375971E-01      0.2547867322E-01
          0                 4           1             4    7     1      -0.8957451830E-05       4    7    1        -0.5130405530E-03      0.1042079097E-02

    ------------------------------------------------
       NWT REQUIRED            4 OUTER ITERATIONS 
       AND A TOTAL OF          7 INNER ITERATIONS.
    ------------------------------------------------

 NO OUTPUT CONTROL FOR STRESS PERIOD   11   TIME STEP   29
 
 SOLVING FOR HEAD 
                                                   Max.-Head-Change                         Max.-Flux-Residual
  Residual-Control   Outer-Iter.   Inner-Iter.     Column Row Layer    Maximum-Head-Change  Column Row Layer    Maximum-Flux-Residual          L2-NORM 
          0                 1           2             4    7     1       0.3348906636E-01       4    7    1         0.1765781337E+01      0.3589332244E+01
          0                 2           2             4    7     1      -0.3257596196E-02       4    7    1        -0.1765797152E+00      0.3589340176E+00
          0                 3           2             4    7     1       0.2218299969E-03       4    7    1         0.1236057043E-01      0.2512537899E-01
          0                 4           1             4    7     1      -0.8826824255E-05       4    7    1        -0.5055481006E-03      0.1027630749E-02

    ------------------------------------------------
       NWT REQUIRED            4 OUTER ITERATIONS 
       AND A TOTAL OF          7 INNER ITERATIONS.
    ------------------------------------------------

 NO OUTPUT CONTROL FOR STRESS PERIOD   11   TIME STEP   30



 STREAM LISTING     PERIOD     11   STEP       30

 LAYER ROW COL. STREAM  RCH.  FLOW INTO     FLOW TO   FLOW OUT OF   OVRLND.     DIRECT     STREAM       STREAM     STREAM     STREAM   STREAMBED  STREAMBED
                SEG.NO.  NO.  STRM. RCH.    AQUIFER    STRM. RCH.    RUNOFF     PRECIP       ET          HEAD       DEPTH      WIDTH   CONDCTNC.   GRADIENT

   1    1    1     1     1    1.3125E+01  1.7336E-01   1.2952E+01  0.000E+00  0.000E+00  0.000E+00  1.09402E+03  9.718E-01  9.699E+00  4.365E-02  1.324E+00
   1    2    2     1     2    1.2952E+01  2.6707E-01   1.2684E+01  0.000E+00  0.000E+00  0.000E+00  1.08903E+03  9.671E-01  9.617E+00  6.732E-02  1.322E+00
   1    3    3     1     3    1.2684E+01  2.2641E-01   1.2458E+01  0.000E+00  0.000E+00  0.000E+00  1.08338E+03  9.616E-01  9.525E+00  5.715E-02  1.321E+00
   1    3    4     1     4    1.2458E+01  2.0737E-01   1.2251E+01  0.000E+00  0.000E+00  0.000E+00  1.07836E+03  9.568E-01  9.443E+00  5.241E-02  1.319E+00
   1    4    5     2     1    1.0251E+01  2.8870E-01   9.9620E+00  0.000E+00  0.000E+00  0.000E+00  1.07264E+03  7.013E-01  1.200E+01  7.800E-02  1.234E+00
   1    5    6     2     2    9.9620E+00  2.2144E-01   9.7406E+00  0.000E+00  0.000E+00  0.000E+00  1.06720E+03  6.906E-01  1.200E+01  6.000E-02  1.230E+00
   1    6    6     2     3    9.7406E+00  2.2088E-01   9.5197E+00  0.000E+00  0.000E+00  0.000E+00  1.06247E+03  6.813E-01  1.200E+01  6.000E-02  1.227E+00
   1    7    6     2     4    9.5197E+00  2.2031E-01   9.2994E+00  0.000E+00  0.000E+00  0.000E+00  1.05775E+03  6.719E-01  1.200E+01  6.000E-02  1.224E+00
   1    8    6     2     5    9.2994E+00  2.1974E-01   9.0796E+00  0.000E+00  0.000E+00  0.000E+00  1.05302E+03  6.624E-01  1.200E+01  6.000E-02  1.221E+00
   1    3    5     3     1    2.0000E+00  2.8252E-01   1.7175E+00  0.000E+00  0.000E+00  0.000E+00  1.07555E+03  1.909E+00  9.636E+00  7.227E-02  1.955E+00
   1    3    6     3     2    1.7175E+00  2.4905E-01   1.4684E+00  0.000E+00  0.000E+00  0.000E+00  1.07264E+03  1.727E+00  8.909E+00  6.682E-02  1.864E+00
   1    3    7     3     3    1.4684E+00  1.9718E-01   1.2712E+00  0.000E+00  0.000E+00  0.000E+00  1.06987E+03  1.555E+00  8.218E+00  5.547E-02  1.777E+00
   1    4    8     3     4    1.2712E+00  2.2567E-01   1.0456E+00  0.000E+00  0.000E+00  0.000E+00  1.06682E+03  1.364E+00  7.455E+00  6.709E-02  1.682E+00
   1    5    8     3     5    1.0456E+00  1.5790E-01   8.8768E-01  0.000E+00  0.000E+00  0.000E+00  1.06362E+03  1.164E+00  6.655E+00  4.991E-02  1.582E+00
   1    6    8     3     6    8.8768E-01  5.5980E-02   8.3170E-01  0.000E+00  0.000E+00  0.000E+00  1.06158E+03  1.036E+00  6.145E+00  1.844E-02  1.518E+00
   1    5   10     4     1    1.0000E+01  9.0919E-02   9.9091E+00  0.000E+00  0.000E+00  0.000E+00  1.07836E+03  6.368E-01  1.000E+01  2.500E-02  1.212E+00
   1    5    9     4     2    9.9091E+00  1.8158E-01   9.7275E+00  0.000E+00  0.000E+00  0.000E+00  1.07154E+03  6.315E-01  1.000E+01  5.000E-02  1.211E+00
   1    6    8     4     3    9.7275E+00  1.2689E-01   9.6006E+00  0.000E+00  0.000E+00  0.000E+00  1.06381E+03  6.256E-01  1.000E+01  3.500E-02  1.209E+00
   1    6    8     5     1    1.0432E+01  2.2686E-01   1.0205E+01  0.000E+00  0.000E+00  0.000E+00  1.05868E+03  6.790E-01  1.542E+01  6.166E-02  1.226E+00
   1    7    7     5     2    1.0205E+01  2.7894E-01   9.9265E+00  0.000E+00  0.000E+00  0.000E+00  1.05417E+03  6.732E-01  1.519E+01  7.594E-02  1.224E+00
   1    8    7     5     3    9.9265E+00  1.9221E-01   9.7343E+00  0.000E+00  0.000E+00  0.000E+00  1.04992E+03  6.676E-01  1.497E+01  5.241E-02  1.223E+00
   1    8    6     5     4    9.7343E+00  1.3577E-01   9.5985E+00  0.000E+00  0.000E+00  0.000E+00  1.04691E+03  6.637E-01  1.482E+01  3.706E-02  1.221E+00
   1    9    6     6     1    1.8678E+01  2.4127E-01   1.8437E+01  0.000E+00  0.000E+00  0.000E+00  1.04375E+03  1.021E+00  1.200E+01  6.000E-02  1.340E+00
   1   10    7     6     2    1.8437E+01  2.4079E-01   1.8196E+01  0.000E+00  0.000E+00  0.000E+00  1.03919E+03  1.013E+00  1.200E+01  6.000E-02  1.338E+00
   1   11    7     6     3    1.8196E+01  2.4031E-01   1.7956E+01  0.000E+00  0.000E+00  0.000E+00  1.03464E+03  1.005E+00  1.200E+01  6.000E-02  1.335E+00
   1   12    7     6     4    1.7956E+01  2.3983E-01   1.7716E+01  0.000E+00  0.000E+00  0.000E+00  1.03009E+03  9.971E-01  1.200E+01  6.000E-02  1.332E+00
   1   13    7     6     5    1.7716E+01  1.4245E-03   1.7715E+01  0.000E+00  0.000E+00  0.000E+00  1.02690E+03  9.931E-01  1.200E+01  2.400E-02  1.978E-02
   1   14    9     7     1    1.5000E+02  1.3691E+00   1.4863E+02  0.000E+00  0.000E+00  0.000E+00  1.03987E+03  2.288E+00  5.529E+01  5.593E-01  8.159E-01
   1   13    8     7     2    1.4863E+02  1.9191E+00   1.4671E+02  0.000E+00  0.000E+00  0.000E+00  1.03478E+03  2.279E+00  5.526E+01  6.148E-01  1.041E+00
   1   13    7     7     3    1.4671E+02  1.5893E+00   1.4512E+02  0.000E+00  0.000E+00  0.000E+00  1.02969E+03  2.270E+00  5.521E+01  5.584E-01  9.487E-01
   1   13    6     8     1    1.6284E+02  9.9252E-01   1.6184E+02  0.000E+00  0.000E+00  0.000E+00  1.02478E+03  2.902E+00  4.207E+01  4.287E-01  7.717E-01
   1   13    5     8     2    1.6184E+02  2.4187E-01   1.6160E+02  0.000E+00  0.000E+00  0.000E+00  1.01852E+03  2.897E+00  4.201E+01  4.281E-01  1.883E-01
   1   13    4     8     3    1.6160E+02 -2.2124E+00   1.6382E+02  0.000E+00  0.000E+00  0.000E+00  1.01228E+03  2.904E+00  4.211E+01  4.291E+00 -1.719E-01
   1   13    3     8     4    1.6382E+02 -3.5312E+00   1.6735E+02  0.000E+00  0.000E+00  0.000E+00  1.00605E+03  2.923E+00  4.239E+01  4.319E+00 -2.725E-01
   1   13    2     8     5    1.6735E+02 -2.5339E+00   1.6988E+02  0.000E+00  0.000E+00  0.000E+00  9.99818E+02  2.943E+00  4.268E+01  4.349E+00 -1.942E-01
   1   13    1     8     6    1.6988E+02 -1.9538E+00   1.7183E+02  0.000E+00  0.000E+00  0.000E+00  9.94833E+02  2.958E+00  4.289E+01  2.622E+00 -2.484E-01
   1    8    6     9     1    0.0000E+00  0.0000E+00   0.0000E+00  0.000E+00  0.000E+00  0.000E+00  1.07875E+03  0.000E+00  4.000E+00  0.000E+00  1.000E+00
   1    8    5     9     2    0.0000E+00  0.0000E+00   0.0000E+00  0.000E+00  0.000E+00  0.000E+00  1.07825E+03  0.000E+00  4.000E+00  0.000E+00  1.000E+00





UNSATURATED ZONE PACKAGE VOLUMETRIC BUDGET FOR  TIME STEP    30 STRESS PERIOD   11
  ------------------------------------------------------------------------------



     CUMULATIVE VOLUMES      L**3       RATES FOR THIS TIME STEP      L**3/T
     ------------------                 ------------------------

           IN:                                      IN:
           ---                                      ---
        INFILTRATION =   599668242.0227          INFILTRATION =           4.4075

          OUT:                                     OUT:
          ----                                     ----
              UZF ET =   494376572.2356                UZF ET =           3.7800
        UZF RECHARGE =       73224.0000          UZF RECHARGE =       0.0000E+00

            IN - OUT =   105218445.7871              IN - OUT =           0.6275

          STORAGE:                                 STORAGE:
          --------                                 --------
      STORAGE CHANGE =   105218437.5762        STORAGE CHANGE =           0.6275

 PERCENT DISCREPANCY IS DIFFERENCE BETWEEN IN-OUT MINUS CHANGE IN STORAGE
 DIVIDED BY THE AVERAGE OF IN AND OUT TIMES 100

 PERCENT DISCREPANCY =           0.00     PERCENT DISCREPANCY =           0.00






1
  VOLUMETRIC BUDGET FOR AGRICULTURAL FIELDS AT  END OF TIME STEP   30, STRESS PERIOD  11
  ------------------------------------------------------------------------------

     CUMULATIVE VOLUMES      L**3       RATES FOR THIS TIME STEP      L**3/T
     ------------------                 ------------------------

           IN:                                      IN:
           ---                                      ---
               AG WELLS  =   266612848.0000                 AG WELLS  =           0.0000
      DIVERSION SEGMENTS =   217175360.0000        DIVERSION SEGMENTS =           0.0000
           GW IRRIGATION =           0.0000             GW IRRIGATION =           0.0000
           SW IRRIGATION =           0.0000             SW IRRIGATION =           0.0000
        SYSTEM LOSSES GW =           0.0000          SYSTEM LOSSES GW =           0.0000
        SYSTEM LOSSES SW =           0.0000          SYSTEM LOSSES SW =           0.0000

                TOTAL IN =   483788224.0000                  TOTAL IN =           0.0000

          OUT:                                     OUT:
          ----                                     ----
               AG WELLS  =           0.0000                 AG WELLS  =           0.0000
      DIVERSION SEGMENTS =           0.0000        DIVERSION SEGMENTS =           0.0000
           GW IRRIGATION =   266612848.0000             GW IRRIGATION =           0.0000
           SW IRRIGATION =   217179728.0000             SW IRRIGATION =           0.0000
        SYSTEM LOSSES GW =           0.0000          SYSTEM LOSSES GW =           0.0000
        SYSTEM LOSSES SW =           0.0000          SYSTEM LOSSES SW =           0.0000

               TOTAL OUT =   483792576.0000                 TOTAL OUT =           0.0000

                IN - OUT =       -4352.0000                  IN - OUT =           0.0000

     PERCENT DISCREPANCY =          -0.00         PERCENT DISCREPANCY =           0.00



1
  VOLUMETRIC BUDGET FOR ENTIRE MODEL AT END OF TIME STEP   30, STRESS PERIOD  11
  ------------------------------------------------------------------------------

     CUMULATIVE VOLUMES      L**3       RATES FOR THIS TIME STEP      L**3/T
     ------------------                 ------------------------

           IN:                                      IN:
           ---                                      ---
             STORAGE     =   355659104.0000               STORAGE     =           8.2365
       CONSTANT HEAD     =           0.0000         CONSTANT HEAD     =           0.0000
     HEAD DEP BOUNDS     =     7597069.5000       HEAD DEP BOUNDS     =           0.2880
      STREAM LEAKAGE     =   311451008.0000        STREAM LEAKAGE     =          11.5221
        UZF RECHARGE     =       73223.9531          UZF RECHARGE     =           0.0000
               GW ET     =           0.0000                 GW ET     =           0.0000
     SURFACE LEAKAGE     =           0.0000       SURFACE LEAKAGE     =           0.0000
           AG WELLS      =           0.0000             AG WELLS      =           0.0000

                TOTAL IN =   674780416.0000                  TOTAL IN =          20.0467

          OUT:                                     OUT:
          ----                                     ----
             STORAGE     =   127931248.0000               STORAGE     =           9.5274
       CONSTANT HEAD     =           0.0000         CONSTANT HEAD     =           0.0000
     HEAD DEP BOUNDS     =     7600220.5000       HEAD DEP BOUNDS     =           0.2880
      STREAM LEAKAGE     =   272638656.0000        STREAM LEAKAGE     =          10.2313
        UZF RECHARGE     =           0.0000          UZF RECHARGE     =           0.0000
               GW ET     =           0.0000                 GW ET     =           0.0000
     SURFACE LEAKAGE     =           0.0000       SURFACE LEAKAGE     =           0.0000
           AG WELLS      =   266612848.0000             AG WELLS      =           0.0000

               TOTAL OUT =   674782976.0000                 TOTAL OUT =          20.0467

                IN - OUT =       -2560.0000                  IN - OUT =       9.5367E-06

     PERCENT DISCREPANCY =          -0.00         PERCENT DISCREPANCY =           0.00






         TIME SUMMARY AT END OF TIME STEP   30 IN STRESS PERIOD   11
                    SECONDS     MINUTES      HOURS       DAYS        YEARS
                    -----------------------------------------------------------
   TIME STEP LENGTH  87667.      1461.1      24.352      1.0147     2.77799E-03
 STRESS PERIOD TIME 2.63000E+06  43833.      730.56      30.440     8.33397E-02
         TOTAL TIME 2.63864E+07 4.39773E+05  7329.5      305.40     0.83613    
1
1
                            STRESS PERIOD NO.   12, LENGTH =   2630000.    
                            -----------------------------------------------

                              NUMBER OF TIME STEPS =    30

                               MULTIPLIER FOR DELT =     1.000

                            INITIAL TIME STEP SIZE =   87666.66    

 REUSING NON-PARAMETER GHB CELLS FROM LAST STRESS PERIOD

      2 GHB CELLS

 REUSING STREAM SEGMENT DATA FROM LAST STRESS PERIOD



            AREAL INFILTRATION RATE
 READING ON UNIT   19 WITH FORMAT: (10F4.0)            

            1           2           3           4           5           6           7           8           9          10
 ........................................................................................................................
   1   1.2000E-09   0.000       0.000       0.000       0.000       0.000       0.000       0.000       0.000       0.000    
   2   2.1000E-09  2.0000E-09  8.0000E-10  8.5000E-09   0.000       0.000       0.000       0.000       0.000       0.000    
   3   5.0000E-10  1.1000E-09  8.8000E-09  5.5000E-09   0.000       0.000       0.000       0.000       0.000       0.000    
   4   8.5000E-09  1.1000E-09  1.1000E-09  1.1000E-09  2.0000E-09   0.000       0.000       0.000       0.000       0.000    
   5   8.5000E-09  1.1000E-09  1.1000E-09  1.1000E-09  1.1000E-09   0.000       0.000       0.000       0.000       0.000    
   6   8.5000E-09  5.2000E-09  2.1000E-09  1.1000E-09  1.5000E-09   0.000       0.000       0.000       0.000       0.000    
   7   8.5000E-09  5.2000E-09  2.1000E-09  1.2000E-09  2.0000E-09   0.000       0.000       0.000       0.000       0.000    
   8   5.0000E-10  5.2000E-09  2.1000E-09  1.2000E-09  5.0000E-09   0.000       0.000       0.000       0.000       0.000    
   9   5.0000E-10  5.2000E-09  2.1000E-09  1.2000E-09  5.0000E-09   0.000       0.000       0.000       0.000       0.000    
  10   5.0000E-10  5.2000E-09  2.1000E-09  1.2000E-09  5.8000E-09   0.000       0.000       0.000       0.000       0.000    
  11   1.0000E-10  1.1000E-09  1.1000E-09  1.2000E-09  5.0000E-09   0.000       0.000       0.000       0.000       0.000    
  12   1.1000E-09  1.1000E-09  1.1000E-09  1.1000E-09  2.0000E-09   0.000       0.000       0.000       0.000       0.000    
  13   1.1000E-09  2.2000E-09  2.2000E-09  2.1000E-09  1.0000E-09   0.000       0.000       0.000       0.000       0.000    
  14   2.0000E-10  5.5000E-09  5.5000E-09  5.2000E-09  1.0000E-09   0.000       0.000       0.000       0.000       0.000    
  15    0.000      8.8000E-09  8.8000E-09   0.000       0.000       0.000       0.000       0.000       0.000       0.000    

                  ET RATE =  5.000000E-10

 USING ET EXTINCTION DEPTH FROM PREVIOUS STRESS PERIOD. CURRENT PERIOD IS:      12

 USING EXTINCTION WATER CONTENT FROM PREVIOUS STRESS PERIOD. CURRENT PERIOD IS:      12

 USING AIR ENTRY PRESSURE FROM PREVIOUS STRESS PERIOD. CURRENT PERIOD IS:      12

 USING ROOT PRESSURE HEAD FROM PREVIOUS STRESS PERIOD. CURRENT PERIOD IS:      12

 USING ROOT ACTIVITY FROM PREVIOUS STRESS PERIOD. CURRENT PERIOD IS:      12

 PROCESSING AG STRESS PERIOD DATA

 READING AG STRESS PERIOD DATA

 READING IRRIGATION SEGMENT

 READING IRRIGATION WELL

 READING SUPPLEMENTAL WELL

 END PROCESSING AG STRESS PERIOD DATA OPTIONS
 
 SOLVING FOR HEAD 
                                                   Max.-Head-Change                         Max.-Flux-Residual
  Residual-Control   Outer-Iter.   Inner-Iter.     Column Row Layer    Maximum-Head-Change  Column Row Layer    Maximum-Flux-Residual          L2-NORM 
          0                 1           2             4    7     1       0.3300137397E-01       4    7    1         0.1740026576E+01      0.3545243006E+01
          0                 2           2             4    7     1      -0.3210156446E-02       4    7    1        -0.1740041996E+00      0.3546054004E+00
          0                 3           2             4    7     1       0.2185995317E-03       4    7    1         0.1218028464E-01      0.2482174270E-01
          0                 4           1             4    7     1      -0.8698280951E-05       4    7    1        -0.4981744064E-03      0.1015162745E-02

    ------------------------------------------------
       NWT REQUIRED            4 OUTER ITERATIONS 
       AND A TOTAL OF          7 INNER ITERATIONS.
    ------------------------------------------------

 NO OUTPUT CONTROL FOR STRESS PERIOD   12   TIME STEP    1
 
 SOLVING FOR HEAD 
                                                   Max.-Head-Change                         Max.-Flux-Residual
  Residual-Control   Outer-Iter.   Inner-Iter.     Column Row Layer    Maximum-Head-Change  Column Row Layer    Maximum-Flux-Residual          L2-NORM 
          0                 1           2             4    7     1       0.3252178392E-01       4    7    1         0.1714696461E+01      0.3498191185E+01
          0                 2           2             4    7     1      -0.3163504844E-02       4    7    1        -0.1714711493E+00      0.3498102669E+00
          0                 3           2             4    7     1       0.2154227359E-03       4    7    1         0.1200297140E-01      0.2448584742E-01
          0                 4           1             4    7     1      -0.8571873263E-05       4    7    1        -0.4909222780E-03      0.1001447425E-02

    ------------------------------------------------
       NWT REQUIRED            4 OUTER ITERATIONS 
       AND A TOTAL OF          7 INNER ITERATIONS.
    ------------------------------------------------

 NO OUTPUT CONTROL FOR STRESS PERIOD   12   TIME STEP    2
 
 SOLVING FOR HEAD 
                                                   Max.-Head-Change                         Max.-Flux-Residual
  Residual-Control   Outer-Iter.   Inner-Iter.     Column Row Layer    Maximum-Head-Change  Column Row Layer    Maximum-Flux-Residual          L2-NORM 
          0                 1           2             4    7     1       0.3204994785E-01       4    7    1         0.1689771803E+01      0.3450625458E+01
          0                 2           2             4    7     1      -0.3117607502E-02       4    7    1        -0.1689786454E+00      0.3450547496E+00
          0                 3           2             4    7     1       0.2122973028E-03       4    7    1         0.1182849644E-01      0.2415301180E-01
          0                 4           1             4    7     1      -0.8447509436E-05       4    7    1        -0.4837862425E-03      0.9877921152E-03

    ------------------------------------------------
       NWT REQUIRED            4 OUTER ITERATIONS 
       AND A TOTAL OF          7 INNER ITERATIONS.
    ------------------------------------------------

 NO OUTPUT CONTROL FOR STRESS PERIOD   12   TIME STEP    3
 
 SOLVING FOR HEAD 
                                                   Max.-Head-Change                         Max.-Flux-Residual
  Residual-Control   Outer-Iter.   Inner-Iter.     Column Row Layer    Maximum-Head-Change  Column Row Layer    Maximum-Flux-Residual          L2-NORM 
          0                 1           2             4    7     1       0.3158605658E-01       4    7    1         0.1665263805E+01      0.3404092308E+01
          0                 2           2             4    7     1      -0.3072482986E-02       4    7    1        -0.1665278083E+00      0.3404024300E+00
          0                 3           2             4    7     1       0.2092244958E-03       4    7    1         0.1165693811E-01      0.2382751412E-01
          0                 4           1             4    7     1      -0.8325239550E-05       4    7    1        -0.4767695100E-03      0.9745074008E-03

    ------------------------------------------------
       NWT REQUIRED            4 OUTER ITERATIONS 
       AND A TOTAL OF          7 INNER ITERATIONS.
    ------------------------------------------------

 NO OUTPUT CONTROL FOR STRESS PERIOD   12   TIME STEP    4
 
 SOLVING FOR HEAD 
                                                   Max.-Head-Change                         Max.-Flux-Residual
  Residual-Control   Outer-Iter.   Inner-Iter.     Column Row Layer    Maximum-Head-Change  Column Row Layer    Maximum-Flux-Residual          L2-NORM 
          0                 1           2             4    7     1       0.3112974920E-01       4    7    1         0.1641153095E+01      0.3358554593E+01
          0                 2           2             4    7     1      -0.3028096184E-02       4    7    1        -0.1641167007E+00      0.3358494575E+00
          0                 3           2             4    7     1       0.2062019243E-03       4    7    1         0.1148816085E-01      0.2350883229E-01
          0                 4           1             4    7     1      -0.8204968624E-05       4    7    1        -0.4698664984E-03      0.9614775227E-03

    ------------------------------------------------
       NWT REQUIRED            4 OUTER ITERATIONS 
       AND A TOTAL OF          7 INNER ITERATIONS.
    ------------------------------------------------

 NO OUTPUT CONTROL FOR STRESS PERIOD   12   TIME STEP    5
 
 SOLVING FOR HEAD 
                                                   Max.-Head-Change                         Max.-Flux-Residual
  Residual-Control   Outer-Iter.   Inner-Iter.     Column Row Layer    Maximum-Head-Change  Column Row Layer    Maximum-Flux-Residual          L2-NORM 
          0                 1           2             4    7     1       0.3068120998E-01       4    7    1         0.1617450227E+01      0.3313990649E+01
          0                 2           2             4    7     1      -0.2984465023E-02       4    7    1        -0.1617463781E+00      0.3313937522E+00
          0                 3           2             4    7     1       0.2032308090E-03       4    7    1         0.1132223853E-01      0.2319700509E-01
          0                 4           1             4    7     1      -0.8086744897E-05       4    7    1        -0.4630802619E-03      0.9487179551E-03

    ------------------------------------------------
       NWT REQUIRED            4 OUTER ITERATIONS 
       AND A TOTAL OF          7 INNER ITERATIONS.
    ------------------------------------------------

 NO OUTPUT CONTROL FOR STRESS PERIOD   12   TIME STEP    6
 
 SOLVING FOR HEAD 
                                                   Max.-Head-Change                         Max.-Flux-Residual
  Residual-Control   Outer-Iter.   Inner-Iter.     Column Row Layer    Maximum-Head-Change  Column Row Layer    Maximum-Flux-Residual          L2-NORM 
          0                 1           2             4    7     1       0.3024020394E-01       4    7    1         0.1594142806E+01      0.3270363689E+01
          0                 2           2             4    7     1      -0.2941566649E-02       4    7    1        -0.1594156009E+00      0.3270316936E+00
          0                 3           2             4    7     1       0.2003095936E-03       4    7    1         0.1115908437E-01      0.2289173214E-01
          0                 4           1             4    7     1      -0.7970507121E-05       4    7    1        -0.4564072510E-03      0.9362314008E-03

    ------------------------------------------------
       NWT REQUIRED            4 OUTER ITERATIONS 
       AND A TOTAL OF          7 INNER ITERATIONS.
    ------------------------------------------------

 NO OUTPUT CONTROL FOR STRESS PERIOD   12   TIME STEP    7
 
 SOLVING FOR HEAD 
                                                   Max.-Head-Change                         Max.-Flux-Residual
  Residual-Control   Outer-Iter.   Inner-Iter.     Column Row Layer    Maximum-Head-Change  Column Row Layer    Maximum-Flux-Residual          L2-NORM 
          0                 1           2             4    7     1       0.2980662979E-01       4    7    1         0.1571225964E+01      0.3227634150E+01
          0                 2           2             4    7     1      -0.2899386438E-02       4    7    1        -0.1571238825E+00      0.3226090907E+00
          0                 3           2             4    7     1       0.1974372828E-03       4    7    1         0.1099866436E-01      0.2258219353E-01
          0                 4           1             4    7     1      -0.7856214771E-05       4    7    1        -0.4498460480E-03      0.9235873169E-03

    ------------------------------------------------
       NWT REQUIRED            4 OUTER ITERATIONS 
       AND A TOTAL OF          7 INNER ITERATIONS.
    ------------------------------------------------

 NO OUTPUT CONTROL FOR STRESS PERIOD   12   TIME STEP    8
 
 SOLVING FOR HEAD 
                                                   Max.-Head-Change                         Max.-Flux-Residual
  Residual-Control   Outer-Iter.   Inner-Iter.     Column Row Layer    Maximum-Head-Change  Column Row Layer    Maximum-Flux-Residual          L2-NORM 
          0                 1           2             4    7     1       0.2938054467E-01       4    7    1         0.1548702023E+01      0.3185924453E+01
          0                 2           2             4    7     1      -0.2857944253E-02       4    7    1        -0.1548714549E+00      0.3185888163E+00
          0                 3           2             4    7     1       0.1946152284E-03       4    7    1         0.1084099468E-01      0.2230080644E-01
          0                 4           1             4    7     1      -0.7743922879E-05       4    7    1        -0.4433973536E-03      0.9120874846E-03

    ------------------------------------------------
       NWT REQUIRED            4 OUTER ITERATIONS 
       AND A TOTAL OF          7 INNER ITERATIONS.
    ------------------------------------------------

 NO OUTPUT CONTROL FOR STRESS PERIOD   12   TIME STEP    9
 
 SOLVING FOR HEAD 
                                                   Max.-Head-Change                         Max.-Flux-Residual
  Residual-Control   Outer-Iter.   Inner-Iter.     Column Row Layer    Maximum-Head-Change  Column Row Layer    Maximum-Flux-Residual          L2-NORM 
          0                 1           2             4    7     1       0.2896182665E-01       4    7    1         0.1526565866E+01      0.3145091974E+01
          0                 2           2             4    7     1      -0.2817213926E-02       4    7    1        -0.1526578064E+00      0.3145059728E+00
          0                 3           2             4    7     1       0.1918416491E-03       4    7    1         0.1068603952E-01      0.2201506838E-01
          0                 4           1             4    7     1      -0.7633559719E-05       4    7    1        -0.4370596976E-03      0.9003956408E-03

    ------------------------------------------------
       NWT REQUIRED            4 OUTER ITERATIONS 
       AND A TOTAL OF          7 INNER ITERATIONS.
    ------------------------------------------------

 NO OUTPUT CONTROL FOR STRESS PERIOD   12   TIME STEP   10
 
 SOLVING FOR HEAD 
                                                   Max.-Head-Change                         Max.-Flux-Residual
  Residual-Control   Outer-Iter.   Inner-Iter.     Column Row Layer    Maximum-Head-Change  Column Row Layer    Maximum-Flux-Residual          L2-NORM 
          0                 1           2             4    7     1       0.2855023724E-01       4    7    1         0.1504804612E+01      0.3105073774E+01
          0                 2           2             4    7     1      -0.2777177031E-02       4    7    1        -0.1504816491E+00      0.3105045184E+00
          0                 3           2             4    7     1       0.1891152895E-03       4    7    1         0.1053370876E-01      0.2173500325E-01
          0                 4           1             4    7     1      -0.7525075212E-05       4    7    1        -0.4308293442E-03      0.8889479870E-03

    ------------------------------------------------
       NWT REQUIRED            4 OUTER ITERATIONS 
       AND A TOTAL OF          7 INNER ITERATIONS.
    ------------------------------------------------

 NO OUTPUT CONTROL FOR STRESS PERIOD   12   TIME STEP   11
 
 SOLVING FOR HEAD 
                                                   Max.-Head-Change                         Max.-Flux-Residual
  Residual-Control   Outer-Iter.   Inner-Iter.     Column Row Layer    Maximum-Head-Change  Column Row Layer    Maximum-Flux-Residual          L2-NORM 
          0                 1           2             4    7     1       0.2814580830E-01       4    7    1         0.1483420284E+01      0.3065854151E+01
          0                 2           2             4    7     1      -0.2737836665E-02       4    7    1        -0.1483431850E+00      0.3065829678E+00
          0                 3           2             4    7     1       0.1864363607E-03       4    7    1         0.1038401649E-01      0.2146062077E-01
          0                 4           1             4    7     1      -0.7418477991E-05       4    7    1        -0.4247069164E-03      0.8777163958E-03

    ------------------------------------------------
       NWT REQUIRED            4 OUTER ITERATIONS 
       AND A TOTAL OF          7 INNER ITERATIONS.
    ------------------------------------------------

 NO OUTPUT CONTROL FOR STRESS PERIOD   12   TIME STEP   12
 
 SOLVING FOR HEAD 
                                                   Max.-Head-Change                         Max.-Flux-Residual
  Residual-Control   Outer-Iter.   Inner-Iter.     Column Row Layer    Maximum-Head-Change  Column Row Layer    Maximum-Flux-Residual          L2-NORM 
          0                 1           2             4    7     1       0.2774856168E-01       4    7    1         0.1462414533E+01      0.3027410883E+01
          0                 2           2             4    7     1      -0.2699194970E-02       4    7    1        -0.1462425794E+00      0.3027388025E+00
          0                 3           2             4    7     1       0.1838050078E-03       4    7    1         0.1023697433E-01      0.2119142830E-01
          0                 4           1             4    7     1      -0.7313773813E-05       4    7    1        -0.4186928732E-03      0.8667136730E-03

    ------------------------------------------------
       NWT REQUIRED            4 OUTER ITERATIONS 
       AND A TOTAL OF          7 INNER ITERATIONS.
    ------------------------------------------------

 NO OUTPUT CONTROL FOR STRESS PERIOD   12   TIME STEP   13
 
 SOLVING FOR HEAD 
                                                   Max.-Head-Change                         Max.-Flux-Residual
  Residual-Control   Outer-Iter.   Inner-Iter.     Column Row Layer    Maximum-Head-Change  Column Row Layer    Maximum-Flux-Residual          L2-NORM 
          0                 1           2             4    7     1       0.2735810749E-01       4    7    1         0.1441766528E+01      0.2989717558E+01
          0                 2           2             4    7     1      -0.2661214078E-02       4    7    1        -0.1441777493E+00      0.2989698417E+00
          0                 3           2             4    7     1       0.1812186542E-03       4    7    1         0.1009243643E-01      0.2092763338E-01
          0                 4           1             4    7     1      -0.7210860675E-05       4    7    1        -0.4127812799E-03      0.8559172962E-03

    ------------------------------------------------
       NWT REQUIRED            4 OUTER ITERATIONS 
       AND A TOTAL OF          7 INNER ITERATIONS.
    ------------------------------------------------

 NO OUTPUT CONTROL FOR STRESS PERIOD   12   TIME STEP   14
 
 SOLVING FOR HEAD 
                                                   Max.-Head-Change                         Max.-Flux-Residual
  Residual-Control   Outer-Iter.   Inner-Iter.     Column Row Layer    Maximum-Head-Change  Column Row Layer    Maximum-Flux-Residual          L2-NORM 
          0                 1           2             4    7     1       0.2697447451E-01       4    7    1         0.1421478015E+01      0.2952755020E+01
          0                 2           2             4    7     1      -0.2623896621E-02       4    7    1        -0.1421488690E+00      0.2952737879E+00
          0                 3           2             4    7     1       0.1786774777E-03       4    7    1         0.9950415033E-02      0.2066894417E-01
          0                 4           1             4    7     1      -0.7109744449E-05       4    7    1        -0.4069725719E-03      0.8453445047E-03

    ------------------------------------------------
       NWT REQUIRED            4 OUTER ITERATIONS 
       AND A TOTAL OF          7 INNER ITERATIONS.
    ------------------------------------------------

 NO OUTPUT CONTROL FOR STRESS PERIOD   12   TIME STEP   15
 
 SOLVING FOR HEAD 
                                                   Max.-Head-Change                         Max.-Flux-Residual
  Residual-Control   Outer-Iter.   Inner-Iter.     Column Row Layer    Maximum-Head-Change  Column Row Layer    Maximum-Flux-Residual          L2-NORM 
          0                 1           2             4    7     1       0.2659767902E-01       4    7    1         0.1401550497E+01      0.2916505490E+01
          0                 2           2             4    7     1      -0.2587244276E-02       4    7    1        -0.1401560889E+00      0.2916489933E+00
          0                 3           2             4    7     1       0.1761815934E-03       4    7    1         0.9810920626E-02      0.2041521916E-01
          0                 4           1             4    7     1      -0.7010431467E-05       4    7    1        -0.4012672780E-03      0.8349574266E-03

    ------------------------------------------------
       NWT REQUIRED            4 OUTER ITERATIONS 
       AND A TOTAL OF          7 INNER ITERATIONS.
    ------------------------------------------------

 NO OUTPUT CONTROL FOR STRESS PERIOD   12   TIME STEP   16
 
 SOLVING FOR HEAD 
                                                   Max.-Head-Change                         Max.-Flux-Residual
  Residual-Control   Outer-Iter.   Inner-Iter.     Column Row Layer    Maximum-Head-Change  Column Row Layer    Maximum-Flux-Residual          L2-NORM 
          0                 1           2             4    7     1       0.2622746481E-01       4    7    1         0.1381970167E+01      0.2880949090E+01
          0                 2           2             4    7     1      -0.2551232121E-02       4    7    1        -0.1381980284E+00      0.2880935499E+00
          0                 3           2             4    7     1       0.1737293030E-03       4    7    1         0.9673856591E-02      0.2016625684E-01
          0                 4           1             4    7     1      -0.6912852421E-05       4    7    1        -0.3956613400E-03      0.8248836929E-03

    ------------------------------------------------
       NWT REQUIRED            4 OUTER ITERATIONS 
       AND A TOTAL OF          7 INNER ITERATIONS.
    ------------------------------------------------

 NO OUTPUT CONTROL FOR STRESS PERIOD   12   TIME STEP   17
 
 SOLVING FOR HEAD 
                                                   Max.-Head-Change                         Max.-Flux-Residual
  Residual-Control   Outer-Iter.   Inner-Iter.     Column Row Layer    Maximum-Head-Change  Column Row Layer    Maximum-Flux-Residual          L2-NORM 
          0                 1           2             4    7     1       0.2586385354E-01       4    7    1         0.1362738388E+01      0.2846069218E+01
          0                 2           2             4    7     1      -0.2515862264E-02       4    7    1        -0.1362748237E+00      0.2846056682E+00
          0                 3           2             4    7     1       0.1713207509E-03       4    7    1         0.9539232470E-02      0.1992222510E-01
          0                 4           1             4    7     1      -0.6817013760E-05       4    7    1        -0.3901551995E-03      0.8148263954E-03

    ------------------------------------------------
       NWT REQUIRED            4 OUTER ITERATIONS 
       AND A TOTAL OF          7 INNER ITERATIONS.
    ------------------------------------------------

 NO OUTPUT CONTROL FOR STRESS PERIOD   12   TIME STEP   18
 
 SOLVING FOR HEAD 
                                                   Max.-Head-Change                         Max.-Flux-Residual
  Residual-Control   Outer-Iter.   Inner-Iter.     Column Row Layer    Maximum-Head-Change  Column Row Layer    Maximum-Flux-Residual          L2-NORM 
          0                 1           2             4    7     1       0.2550658478E-01       4    7    1         0.1343841636E+01      0.2811839934E+01
          0                 2           2             4    7     1      -0.2481109370E-02       4    7    1        -0.1343851224E+00      0.2811828477E+00
          0                 3           2             4    7     1       0.1689542113E-03       4    7    1         0.9406953564E-02      0.1968263406E-01
          0                 4           1             4    7     1      -0.6722846981E-05       4    7    1        -0.3847449816E-03      0.8050122725E-03

    ------------------------------------------------
       NWT REQUIRED            4 OUTER ITERATIONS 
       AND A TOTAL OF          7 INNER ITERATIONS.
    ------------------------------------------------

 NO OUTPUT CONTROL FOR STRESS PERIOD   12   TIME STEP   19
 
 SOLVING FOR HEAD 
                                                   Max.-Head-Change                         Max.-Flux-Residual
  Residual-Control   Outer-Iter.   Inner-Iter.     Column Row Layer    Maximum-Head-Change  Column Row Layer    Maximum-Flux-Residual          L2-NORM 
          0                 1           2             4    7     1       0.2515568012E-01       4    7    1         0.1325281054E+01      0.2778255387E+01
          0                 2           2             4    7     1      -0.2446975539E-02       4    7    1        -0.1325290389E+00      0.2778244814E+00
          0                 3           2             4    7     1       0.1666298277E-03       4    7    1         0.9277027905E-02      0.1944757449E-01
          0                 4           1             4    7     1      -0.6630357611E-05       4    7    1        -0.3794310160E-03      0.7954029054E-03

    ------------------------------------------------
       NWT REQUIRED            4 OUTER ITERATIONS 
       AND A TOTAL OF          7 INNER ITERATIONS.
    ------------------------------------------------

 NO OUTPUT CONTROL FOR STRESS PERIOD   12   TIME STEP   20
 
 SOLVING FOR HEAD 
                                                   Max.-Head-Change                         Max.-Flux-Residual
  Residual-Control   Outer-Iter.   Inner-Iter.     Column Row Layer    Maximum-Head-Change  Column Row Layer    Maximum-Flux-Residual          L2-NORM 
          0                 1           2             4    7     1       0.2481101557E-01       4    7    1         0.1307050441E+01      0.2745290684E+01
          0                 2           2             4    7     1      -0.2413448711E-02       4    7    1        -0.1307059529E+00      0.2745280993E+00
          0                 3           2             4    7     1       0.1643467785E-03       4    7    1         0.9149412056E-02      0.1921681077E-01
          0                 4           1             4    7     1      -0.6539512725E-05       4    7    1        -0.3742115177E-03      0.7859631788E-03

    ------------------------------------------------
       NWT REQUIRED            4 OUTER ITERATIONS 
       AND A TOTAL OF          7 INNER ITERATIONS.
    ------------------------------------------------

 NO OUTPUT CONTROL FOR STRESS PERIOD   12   TIME STEP   21
 
 SOLVING FOR HEAD 
                                                   Max.-Head-Change                         Max.-Flux-Residual
  Residual-Control   Outer-Iter.   Inner-Iter.     Column Row Layer    Maximum-Head-Change  Column Row Layer    Maximum-Flux-Residual          L2-NORM 
          0                 1           2             4    7     1       0.2447234304E-01       4    7    1         0.1289136041E+01      0.2712934270E+01
          0                 2           2             4    7     1      -0.2380504753E-02       4    7    1        -0.1289144888E+00      0.2712925376E+00
          0                 3           2             4    7     1       0.1621034203E-03       4    7    1         0.9024009734E-02      0.1899033729E-01
          0                 4           1             4    7     1      -0.6450247273E-05       4    7    1        -0.3690825479E-03      0.7767046449E-03

    ------------------------------------------------
       NWT REQUIRED            4 OUTER ITERATIONS 
       AND A TOTAL OF          7 INNER ITERATIONS.
    ------------------------------------------------

 NO OUTPUT CONTROL FOR STRESS PERIOD   12   TIME STEP   22
 
 SOLVING FOR HEAD 
                                                   Max.-Head-Change                         Max.-Flux-Residual
  Residual-Control   Outer-Iter.   Inner-Iter.     Column Row Layer    Maximum-Head-Change  Column Row Layer    Maximum-Flux-Residual          L2-NORM 
          0                 1           2             4    7     1       0.2413981632E-01       4    7    1         0.1271546967E+01      0.2681174888E+01
          0                 2           2             4    7     1      -0.2348158625E-02       4    7    1        -0.1271555580E+00      0.2681166338E+00
          0                 3           2             4    7     1       0.1599007723E-03       4    7    1         0.8900884754E-02      0.1876804279E-01
          0                 4           1             4    7     1      -0.6362601782E-05       4    7    1        -0.3640467294E-03      0.7676169274E-03

    ------------------------------------------------
       NWT REQUIRED            4 OUTER ITERATIONS 
       AND A TOTAL OF          7 INNER ITERATIONS.
    ------------------------------------------------

 NO OUTPUT CONTROL FOR STRESS PERIOD   12   TIME STEP   23
 
 SOLVING FOR HEAD 
                                                   Max.-Head-Change                         Max.-Flux-Residual
  Residual-Control   Outer-Iter.   Inner-Iter.     Column Row Layer    Maximum-Head-Change  Column Row Layer    Maximum-Flux-Residual          L2-NORM 
          0                 1           2             4    7     1       0.2381304243E-01       4    7    1         0.1254261892E+01      0.2649988397E+01
          0                 2           2             4    7     1      -0.2316372099E-02       4    7    1        -0.1254270278E+00      0.2649981220E+00
          0                 3           2             4    7     1       0.1577362312E-03       4    7    1         0.8779887801E-02      0.1854977547E-01
          0                 4           1             4    7     1      -0.6276472982E-05       4    7    1        -0.3590979513E-03      0.7586774875E-03

    ------------------------------------------------
       NWT REQUIRED            4 OUTER ITERATIONS 
       AND A TOTAL OF          7 INNER ITERATIONS.
    ------------------------------------------------

 NO OUTPUT CONTROL FOR STRESS PERIOD   12   TIME STEP   24
 
 SOLVING FOR HEAD 
                                                   Max.-Head-Change                         Max.-Flux-Residual
  Residual-Control   Outer-Iter.   Inner-Iter.     Column Row Layer    Maximum-Head-Change  Column Row Layer    Maximum-Flux-Residual          L2-NORM 
          0                 1           2             4    7     1       0.2349218061E-01       4    7    1         0.1237289742E+01      0.2619363402E+01
          0                 2           2             4    7     1      -0.2285160666E-02       4    7    1        -0.1237297907E+00      0.2619356045E+00
          0                 3           2             4    7     1       0.1556108515E-03       4    7    1         0.8661081356E-02      0.1833536338E-01
          0                 4           1             4    7     1      -0.6191901974E-05       4    7    1        -0.3542387653E-03      0.7499064826E-03

    ------------------------------------------------
       NWT REQUIRED            4 OUTER ITERATIONS 
       AND A TOTAL OF          7 INNER ITERATIONS.
    ------------------------------------------------

 NO OUTPUT CONTROL FOR STRESS PERIOD   12   TIME STEP   25
 
 SOLVING FOR HEAD 
                                                   Max.-Head-Change                         Max.-Flux-Residual
  Residual-Control   Outer-Iter.   Inner-Iter.     Column Row Layer    Maximum-Head-Change  Column Row Layer    Maximum-Flux-Residual          L2-NORM 
          0                 1           2             4    7     1       0.2317697366E-01       4    7    1         0.1220616798E+01      0.2589289520E+01
          0                 2           2             4    7     1      -0.2254499306E-02       4    7    1        -0.1220624747E+00      0.2589282815E+00
          0                 3           2             4    7     1       0.1535229299E-03       4    7    1         0.8544369402E-02      0.1812487514E-01
          0                 4           1             4    7     1      -0.6108821753E-05       4    7    1        -0.3494652356E-03      0.7413014395E-03

    ------------------------------------------------
       NWT REQUIRED            4 OUTER ITERATIONS 
       AND A TOTAL OF          7 INNER ITERATIONS.
    ------------------------------------------------

 NO OUTPUT CONTROL FOR STRESS PERIOD   12   TIME STEP   26
 
 SOLVING FOR HEAD 
                                                   Max.-Head-Change                         Max.-Flux-Residual
  Residual-Control   Outer-Iter.   Inner-Iter.     Column Row Layer    Maximum-Head-Change  Column Row Layer    Maximum-Flux-Residual          L2-NORM 
          0                 1           2             4    7     1       0.2286731404E-01       4    7    1         0.1204237048E+01      0.2559757753E+01
          0                 2           2             4    7     1      -0.2224377559E-02       4    7    1        -0.1204244788E+00      0.2559751486E+00
          0                 3           2             4    7     1       0.1514717530E-03       4    7    1         0.8429709811E-02      0.1791816022E-01
          0                 4           1             4    7     1      -0.6027203422E-05       4    7    1        -0.3447756453E-03      0.7328536972E-03

    ------------------------------------------------
       NWT REQUIRED            4 OUTER ITERATIONS 
       AND A TOTAL OF          7 INNER ITERATIONS.
    ------------------------------------------------

 NO OUTPUT CONTROL FOR STRESS PERIOD   12   TIME STEP   27
 
 SOLVING FOR HEAD 
                                                   Max.-Head-Change                         Max.-Flux-Residual
  Residual-Control   Outer-Iter.   Inner-Iter.     Column Row Layer    Maximum-Head-Change  Column Row Layer    Maximum-Flux-Residual          L2-NORM 
          0                 1           2             4    7     1       0.2256321764E-01       4    7    1         0.1188152245E+01      0.2530740000E+01
          0                 2           2             4    7     1      -0.2194796971E-02       4    7    1        -0.1188159782E+00      0.2530733948E+00
          0                 3           2             4    7     1       0.1494574280E-03       4    7    1         0.8317114939E-02      0.1771503847E-01
          0                 4           1             4    7     1      -0.5947051472E-05       4    7    1        -0.3401705058E-03      0.7245524377E-03

    ------------------------------------------------
       NWT REQUIRED            4 OUTER ITERATIONS 
       AND A TOTAL OF          7 INNER ITERATIONS.
    ------------------------------------------------

 NO OUTPUT CONTROL FOR STRESS PERIOD   12   TIME STEP   28
 
 SOLVING FOR HEAD 
                                                   Max.-Head-Change                         Max.-Flux-Residual
  Residual-Control   Outer-Iter.   Inner-Iter.     Column Row Layer    Maximum-Head-Change  Column Row Layer    Maximum-Flux-Residual          L2-NORM 
          0                 1           2             4    7     1       0.2226444055E-01       4    7    1         0.1172348559E+01      0.2502239581E+01
          0                 2           2             4    7     1      -0.2165733815E-02       4    7    1        -0.1172355897E+00      0.2502233957E+00
          0                 3           2             4    7     1       0.1474783376E-03       4    7    1         0.8206487882E-02      0.1751554404E-01
          0                 4           1             4    7     1      -0.5868301315E-05       4    7    1        -0.3356458483E-03      0.7163796863E-03

    ------------------------------------------------
       NWT REQUIRED            4 OUTER ITERATIONS 
       AND A TOTAL OF          7 INNER ITERATIONS.
    ------------------------------------------------

 NO OUTPUT CONTROL FOR STRESS PERIOD   12   TIME STEP   29
 
 SOLVING FOR HEAD 
                                                   Max.-Head-Change                         Max.-Flux-Residual
  Residual-Control   Outer-Iter.   Inner-Iter.     Column Row Layer    Maximum-Head-Change  Column Row Layer    Maximum-Flux-Residual          L2-NORM 
          0                 1           2             4    7     1       0.2197100251E-01       4    7    1         0.1156827998E+01      0.2474703963E+01
          0                 2           2             4    7     1      -0.2137190011E-02       4    7    1        -0.1156835144E+00      0.2474692604E+00
          0                 3           2             4    7     1       0.1455346132E-03       4    7    1         0.8097842734E-02      0.1732270477E-01
          0                 4           1             4    7     1      -0.5790959054E-05       4    7    1        -0.3312022700E-03      0.7084935283E-03

    ------------------------------------------------
       NWT REQUIRED            4 OUTER ITERATIONS 
       AND A TOTAL OF          7 INNER ITERATIONS.
    ------------------------------------------------

 NO OUTPUT CONTROL FOR STRESS PERIOD   12   TIME STEP   30



 STREAM LISTING     PERIOD     12   STEP       30

 LAYER ROW COL. STREAM  RCH.  FLOW INTO     FLOW TO   FLOW OUT OF   OVRLND.     DIRECT     STREAM       STREAM     STREAM     STREAM   STREAMBED  STREAMBED
                SEG.NO.  NO.  STRM. RCH.    AQUIFER    STRM. RCH.    RUNOFF     PRECIP       ET          HEAD       DEPTH      WIDTH   CONDCTNC.   GRADIENT

   1    1    1     1     1    9.5403E+00  1.4421E-01   9.3961E+00  0.000E+00  0.000E+00  0.000E+00  1.09393E+03  8.839E-01  8.251E+00  3.713E-02  1.295E+00
   1    2    2     1     2    9.3961E+00  2.2163E-01   9.1745E+00  0.000E+00  0.000E+00  0.000E+00  1.08894E+03  8.782E-01  8.164E+00  5.715E-02  1.293E+00
   1    3    3     1     3    9.1745E+00  1.8736E-01   8.9871E+00  0.000E+00  0.000E+00  0.000E+00  1.08329E+03  8.718E-01  8.065E+00  4.839E-02  1.291E+00
   1    3    4     1     4    8.9871E+00  1.7119E-01   8.8160E+00  0.000E+00  0.000E+00  0.000E+00  1.07827E+03  8.661E-01  7.978E+00  4.428E-02  1.289E+00
   1    4    5     2     1    6.8160E+00  2.7666E-01   6.5393E+00  0.000E+00  0.000E+00  0.000E+00  1.07248E+03  5.469E-01  1.200E+01  7.800E-02  1.182E+00
   1    5    6     2     2    6.5393E+00  2.1209E-01   6.3272E+00  0.000E+00  0.000E+00  0.000E+00  1.06704E+03  5.348E-01  1.200E+01  6.000E-02  1.178E+00
   1    6    6     2     3    6.3272E+00  2.1145E-01   6.1158E+00  0.000E+00  0.000E+00  0.000E+00  1.06232E+03  5.242E-01  1.200E+01  6.000E-02  1.175E+00
   1    7    6     2     4    6.1158E+00  2.1081E-01   5.9050E+00  0.000E+00  0.000E+00  0.000E+00  1.05759E+03  5.134E-01  1.200E+01  6.000E-02  1.171E+00
   1    8    6     2     5    5.9050E+00  2.1015E-01   5.6948E+00  0.000E+00  0.000E+00  0.000E+00  1.05286E+03  5.026E-01  1.200E+01  6.000E-02  1.168E+00
   1    3    5     3     1    2.0000E+00  2.8252E-01   1.7175E+00  0.000E+00  0.000E+00  0.000E+00  1.07555E+03  1.909E+00  9.636E+00  7.227E-02  1.955E+00
   1    3    6     3     2    1.7175E+00  2.4905E-01   1.4684E+00  0.000E+00  0.000E+00  0.000E+00  1.07264E+03  1.727E+00  8.909E+00  6.682E-02  1.864E+00
   1    3    7     3     3    1.4684E+00  1.9718E-01   1.2712E+00  0.000E+00  0.000E+00  0.000E+00  1.06987E+03  1.555E+00  8.218E+00  5.547E-02  1.777E+00
   1    4    8     3     4    1.2712E+00  2.2567E-01   1.0456E+00  0.000E+00  0.000E+00  0.000E+00  1.06682E+03  1.364E+00  7.455E+00  6.709E-02  1.682E+00
   1    5    8     3     5    1.0456E+00  1.5790E-01   8.8768E-01  0.000E+00  0.000E+00  0.000E+00  1.06362E+03  1.164E+00  6.655E+00  4.991E-02  1.582E+00
   1    6    8     3     6    8.8768E-01  5.5980E-02   8.3170E-01  0.000E+00  0.000E+00  0.000E+00  1.06158E+03  1.036E+00  6.145E+00  1.844E-02  1.518E+00
   1    5   10     4     1    1.0000E+01  9.0919E-02   9.9091E+00  0.000E+00  0.000E+00  0.000E+00  1.07836E+03  6.368E-01  1.000E+01  2.500E-02  1.212E+00
   1    5    9     4     2    9.9091E+00  1.8158E-01   9.7275E+00  0.000E+00  0.000E+00  0.000E+00  1.07154E+03  6.315E-01  1.000E+01  5.000E-02  1.211E+00
   1    6    8     4     3    9.7275E+00  1.2689E-01   9.6006E+00  0.000E+00  0.000E+00  0.000E+00  1.06381E+03  6.256E-01  1.000E+01  3.500E-02  1.209E+00
   1    6    8     5     1    1.0432E+01  2.2686E-01   1.0205E+01  0.000E+00  0.000E+00  0.000E+00  1.05868E+03  6.790E-01  1.542E+01  6.166E-02  1.226E+00
   1    7    7     5     2    1.0205E+01  2.7894E-01   9.9265E+00  0.000E+00  0.000E+00  0.000E+00  1.05417E+03  6.732E-01  1.519E+01  7.594E-02  1.224E+00
   1    8    7     5     3    9.9265E+00  1.9221E-01   9.7343E+00  0.000E+00  0.000E+00  0.000E+00  1.04992E+03  6.676E-01  1.497E+01  5.241E-02  1.223E+00
   1    8    6     5     4    9.7343E+00  1.3577E-01   9.5985E+00  0.000E+00  0.000E+00  0.000E+00  1.04691E+03  6.637E-01  1.482E+01  3.706E-02  1.221E+00
   1    9    6     6     1    1.5293E+01  2.3430E-01   1.5059E+01  0.000E+00  0.000E+00  0.000E+00  1.04363E+03  9.050E-01  1.200E+01  6.000E-02  1.302E+00
   1   10    7     6     2    1.5059E+01  2.3380E-01   1.4825E+01  0.000E+00  0.000E+00  0.000E+00  1.03908E+03  8.966E-01  1.200E+01  6.000E-02  1.299E+00
   1   11    7     6     3    1.4825E+01  2.3329E-01   1.4592E+01  0.000E+00  0.000E+00  0.000E+00  1.03452E+03  8.882E-01  1.200E+01  6.000E-02  1.296E+00
   1   12    7     6     4    1.4592E+01  2.3278E-01   1.4359E+01  0.000E+00  0.000E+00  0.000E+00  1.02997E+03  8.797E-01  1.200E+01  6.000E-02  1.293E+00
   1   13    7     6     5    1.4359E+01 -1.2300E-02   1.4371E+01  0.000E+00  0.000E+00  0.000E+00  1.02678E+03  8.757E-01  1.200E+01  2.400E-01 -1.708E-02
   1   14    9     7     1    1.5000E+02  1.3693E+00   1.4863E+02  0.000E+00  0.000E+00  0.000E+00  1.03987E+03  2.288E+00  5.529E+01  5.593E-01  8.161E-01
   1   13    8     7     2    1.4863E+02  1.9193E+00   1.4671E+02  0.000E+00  0.000E+00  0.000E+00  1.03478E+03  2.279E+00  5.525E+01  6.148E-01  1.041E+00
   1   13    7     7     3    1.4671E+02  1.5930E+00   1.4512E+02  0.000E+00  0.000E+00  0.000E+00  1.02969E+03  2.270E+00  5.521E+01  5.584E-01  9.509E-01
   1   13    6     8     1    1.5949E+02  9.8203E-01   1.5851E+02  0.000E+00  0.000E+00  0.000E+00  1.02475E+03  2.879E+00  4.175E+01  4.254E-01  7.695E-01
   1   13    5     8     2    1.5851E+02  2.3909E-01   1.5827E+02  0.000E+00  0.000E+00  0.000E+00  1.01850E+03  2.875E+00  4.169E+01  4.248E-01  1.876E-01
   1   13    4     8     3    1.5827E+02 -2.2125E+00   1.6048E+02  0.000E+00  0.000E+00  0.000E+00  1.01226E+03  2.882E+00  4.178E+01  4.258E+00 -1.732E-01
   1   13    3     8     4    1.6048E+02 -3.5417E+00   1.6402E+02  0.000E+00  0.000E+00  0.000E+00  1.00603E+03  2.901E+00  4.206E+01  4.287E+00 -2.754E-01
   1   13    2     8     5    1.6402E+02 -2.5568E+00   1.6658E+02  0.000E+00  0.000E+00  0.000E+00  9.99796E+02  2.921E+00  4.236E+01  4.317E+00 -1.974E-01
   1   13    1     8     6    1.6658E+02 -1.9770E+00   1.6856E+02  0.000E+00  0.000E+00  0.000E+00  9.94811E+02  2.936E+00  4.258E+01  2.603E+00 -2.532E-01
   1    8    6     9     1    0.0000E+00  0.0000E+00   0.0000E+00  0.000E+00  0.000E+00  0.000E+00  1.07875E+03  0.000E+00  4.000E+00  0.000E+00  1.000E+00
   1    8    5     9     2    0.0000E+00  0.0000E+00   0.0000E+00  0.000E+00  0.000E+00  0.000E+00  1.07825E+03  0.000E+00  4.000E+00  0.000E+00  1.000E+00





UNSATURATED ZONE PACKAGE VOLUMETRIC BUDGET FOR  TIME STEP    30 STRESS PERIOD   12
  ------------------------------------------------------------------------------



     CUMULATIVE VOLUMES      L**3       RATES FOR THIS TIME STEP      L**3/T
     ------------------                 ------------------------

           IN:                                      IN:
           ---                                      ---
        INFILTRATION =   611259966.5808          INFILTRATION =           4.4075

          OUT:                                     OUT:
          ----                                     ----
              UZF ET =   496283322.1130                UZF ET =           0.7250
        UZF RECHARGE =       73224.0000          UZF RECHARGE =       0.0000E+00

            IN - OUT =   114903420.4678              IN - OUT =           3.6825

          STORAGE:                                 STORAGE:
          --------                                 --------
      STORAGE CHANGE =   114903412.1990        STORAGE CHANGE =           3.6825

 PERCENT DISCREPANCY IS DIFFERENCE BETWEEN IN-OUT MINUS CHANGE IN STORAGE
 DIVIDED BY THE AVERAGE OF IN AND OUT TIMES 100

 PERCENT DISCREPANCY =           0.00     PERCENT DISCREPANCY =           0.00






1
  VOLUMETRIC BUDGET FOR AGRICULTURAL FIELDS AT  END OF TIME STEP   30, STRESS PERIOD  12
  ------------------------------------------------------------------------------

     CUMULATIVE VOLUMES      L**3       RATES FOR THIS TIME STEP      L**3/T
     ------------------                 ------------------------

           IN:                                      IN:
           ---                                      ---
               AG WELLS  =   266612848.0000                 AG WELLS  =           0.0000
      DIVERSION SEGMENTS =   217175360.0000        DIVERSION SEGMENTS =           0.0000
           GW IRRIGATION =           0.0000             GW IRRIGATION =           0.0000
           SW IRRIGATION =           0.0000             SW IRRIGATION =           0.0000
        SYSTEM LOSSES GW =           0.0000          SYSTEM LOSSES GW =           0.0000
        SYSTEM LOSSES SW =           0.0000          SYSTEM LOSSES SW =           0.0000

                TOTAL IN =   483788224.0000                  TOTAL IN =           0.0000

          OUT:                                     OUT:
          ----                                     ----
               AG WELLS  =           0.0000                 AG WELLS  =           0.0000
      DIVERSION SEGMENTS =           0.0000        DIVERSION SEGMENTS =           0.0000
           GW IRRIGATION =   266612848.0000             GW IRRIGATION =           0.0000
           SW IRRIGATION =   217179728.0000             SW IRRIGATION =           0.0000
        SYSTEM LOSSES GW =           0.0000          SYSTEM LOSSES GW =           0.0000
        SYSTEM LOSSES SW =           0.0000          SYSTEM LOSSES SW =           0.0000

               TOTAL OUT =   483792576.0000                 TOTAL OUT =           0.0000

                IN - OUT =       -4352.0000                  IN - OUT =           0.0000

     PERCENT DISCREPANCY =          -0.00         PERCENT DISCREPANCY =           0.00



1
  VOLUMETRIC BUDGET FOR ENTIRE MODEL AT END OF TIME STEP   30, STRESS PERIOD  12
  ------------------------------------------------------------------------------

     CUMULATIVE VOLUMES      L**3       RATES FOR THIS TIME STEP      L**3/T
     ------------------                 ------------------------

           IN:                                      IN:
           ---                                      ---
             STORAGE     =   374869088.0000               STORAGE     =           6.3072
       CONSTANT HEAD     =           0.0000         CONSTANT HEAD     =           0.0000
     HEAD DEP BOUNDS     =     8354592.0000       HEAD DEP BOUNDS     =           0.2880
      STREAM LEAKAGE     =   341146560.0000        STREAM LEAKAGE     =          11.2840
        UZF RECHARGE     =       73223.9531          UZF RECHARGE     =           0.0000
               GW ET     =           0.0000                 GW ET     =           0.0000
     SURFACE LEAKAGE     =           0.0000       SURFACE LEAKAGE     =           0.0000
           AG WELLS      =           0.0000             AG WELLS      =           0.0000

                TOTAL IN =   724443456.0000                  TOTAL IN =          17.8792

          OUT:                                     OUT:
          ----                                     ----
             STORAGE     =   149605552.0000               STORAGE     =           7.2912
       CONSTANT HEAD     =           0.0000         CONSTANT HEAD     =           0.0000
     HEAD DEP BOUNDS     =     8357126.5000       HEAD DEP BOUNDS     =           0.2877
      STREAM LEAKAGE     =   299870720.0000        STREAM LEAKAGE     =          10.3003
        UZF RECHARGE     =           0.0000          UZF RECHARGE     =           0.0000
               GW ET     =           0.0000                 GW ET     =           0.0000
     SURFACE LEAKAGE     =           0.0000       SURFACE LEAKAGE     =           0.0000
           AG WELLS      =   266612848.0000             AG WELLS      =           0.0000

               TOTAL OUT =   724446272.0000                 TOTAL OUT =          17.8792

                IN - OUT =       -2816.0000                  IN - OUT =       9.5367E-06

     PERCENT DISCREPANCY =          -0.00         PERCENT DISCREPANCY =           0.00






         TIME SUMMARY AT END OF TIME STEP   30 IN STRESS PERIOD   12
                    SECONDS     MINUTES      HOURS       DAYS        YEARS
                    -----------------------------------------------------------
   TIME STEP LENGTH  87667.      1461.1      24.352      1.0147     2.77799E-03
 STRESS PERIOD TIME 2.63000E+06  43833.      730.56      30.440     8.33397E-02
         TOTAL TIME 2.90163E+07 4.83606E+05  8060.1      335.84     0.91947    
1
1
                            STRESS PERIOD NO.   13, LENGTH =   2630000.    
                            -----------------------------------------------

                              NUMBER OF TIME STEPS =    30

                               MULTIPLIER FOR DELT =     1.000

                            INITIAL TIME STEP SIZE =   87666.66    

 REUSING NON-PARAMETER GHB CELLS FROM LAST STRESS PERIOD

      2 GHB CELLS

 REUSING STREAM SEGMENT DATA FROM LAST STRESS PERIOD



            AREAL INFILTRATION RATE
 READING ON UNIT   19 WITH FORMAT: (10F4.0)            

            1           2           3           4           5           6           7           8           9          10
 ........................................................................................................................
   1   1.2000E-09   0.000       0.000       0.000       0.000       0.000       0.000       0.000       0.000       0.000    
   2   2.1000E-09  2.0000E-09  8.0000E-10  8.5000E-09   0.000       0.000       0.000       0.000       0.000       0.000    
   3   5.0000E-10  1.1000E-09  8.8000E-09  5.5000E-09   0.000       0.000       0.000       0.000       0.000       0.000    
   4   8.5000E-09  1.1000E-09  1.1000E-09  1.1000E-09  2.0000E-09   0.000       0.000       0.000       0.000       0.000    
   5   8.5000E-09  1.1000E-09  1.1000E-09  1.1000E-09  1.1000E-09   0.000       0.000       0.000       0.000       0.000    
   6   8.5000E-09  5.2000E-09  2.1000E-09  1.1000E-09  1.5000E-09   0.000       0.000       0.000       0.000       0.000    
   7   8.5000E-09  5.2000E-09  2.1000E-09  1.2000E-09  2.0000E-09   0.000       0.000       0.000       0.000       0.000    
   8   5.0000E-10  5.2000E-09  2.1000E-09  1.2000E-09  5.0000E-09   0.000       0.000       0.000       0.000       0.000    
   9   5.0000E-10  5.2000E-09  2.1000E-09  1.2000E-09  5.0000E-09   0.000       0.000       0.000       0.000       0.000    
  10   5.0000E-10  5.2000E-09  2.1000E-09  1.2000E-09  5.8000E-09   0.000       0.000       0.000       0.000       0.000    
  11   1.0000E-10  1.1000E-09  1.1000E-09  1.2000E-09  5.0000E-09   0.000       0.000       0.000       0.000       0.000    
  12   1.1000E-09  1.1000E-09  1.1000E-09  1.1000E-09  2.0000E-09   0.000       0.000       0.000       0.000       0.000    
  13   1.1000E-09  2.2000E-09  2.2000E-09  2.1000E-09  1.0000E-09   0.000       0.000       0.000       0.000       0.000    
  14   2.0000E-10  5.5000E-09  5.5000E-09  5.2000E-09  1.0000E-09   0.000       0.000       0.000       0.000       0.000    
  15    0.000      8.8000E-09  8.8000E-09   0.000       0.000       0.000       0.000       0.000       0.000       0.000    

                  ET RATE =  5.000000E-10

 USING ET EXTINCTION DEPTH FROM PREVIOUS STRESS PERIOD. CURRENT PERIOD IS:      13

 USING EXTINCTION WATER CONTENT FROM PREVIOUS STRESS PERIOD. CURRENT PERIOD IS:      13

 USING AIR ENTRY PRESSURE FROM PREVIOUS STRESS PERIOD. CURRENT PERIOD IS:      13

 USING ROOT PRESSURE HEAD FROM PREVIOUS STRESS PERIOD. CURRENT PERIOD IS:      13

 USING ROOT ACTIVITY FROM PREVIOUS STRESS PERIOD. CURRENT PERIOD IS:      13

 PROCESSING AG STRESS PERIOD DATA

 READING AG STRESS PERIOD DATA

 READING IRRIGATION SEGMENT

 READING IRRIGATION WELL

 READING SUPPLEMENTAL WELL

 END PROCESSING AG STRESS PERIOD DATA OPTIONS
 
 SOLVING FOR HEAD 
                                                   Max.-Head-Change                         Max.-Flux-Residual
  Residual-Control   Outer-Iter.   Inner-Iter.     Column Row Layer    Maximum-Head-Change  Column Row Layer    Maximum-Flux-Residual          L2-NORM 
          0                 1           2             4    7     1       0.2168264215E-01       4    7    1         0.1141576929E+01      0.2449628627E+01
          0                 2           2             4    7     1      -0.2109140135E-02       4    7    1        -0.1141583889E+00      0.2449577213E+00
          0                 3           2             4    7     1       0.1436245235E-03       4    7    1         0.7991084094E-02      0.1714653985E-01
          0                 4           1             4    7     1      -0.5714954575E-05       4    7    1        -0.3268358291E-03      0.7012604901E-03

    ------------------------------------------------
       NWT REQUIRED            4 OUTER ITERATIONS 
       AND A TOTAL OF          7 INNER ITERATIONS.
    ------------------------------------------------

 NO OUTPUT CONTROL FOR STRESS PERIOD   13   TIME STEP    1
 
 SOLVING FOR HEAD 
                                                   Max.-Head-Change                         Max.-Flux-Residual
  Residual-Control   Outer-Iter.   Inner-Iter.     Column Row Layer    Maximum-Head-Change  Column Row Layer    Maximum-Flux-Residual          L2-NORM 
          0                 1           2             4    7     1       0.2139939604E-01       4    7    1         0.1126596458E+01      0.2422484524E+01
          0                 2           2             4    7     1      -0.2081587743E-02       4    7    1        -0.1126603236E+00      0.2422438232E+00
          0                 3           2             4    7     1       0.1417483102E-03       4    7    1         0.7886219644E-02      0.1695675078E-01
          0                 4           1             4    7     1      -0.5640298356E-05       4    7    1        -0.3225468581E-03      0.6934879015E-03

    ------------------------------------------------
       NWT REQUIRED            4 OUTER ITERATIONS 
       AND A TOTAL OF          7 INNER ITERATIONS.
    ------------------------------------------------

 NO OUTPUT CONTROL FOR STRESS PERIOD   13   TIME STEP    2
 
 SOLVING FOR HEAD 
                                                   Max.-Head-Change                         Max.-Flux-Residual
  Residual-Control   Outer-Iter.   Inner-Iter.     Column Row Layer    Maximum-Head-Change  Column Row Layer    Maximum-Flux-Residual          L2-NORM 
          0                 1           2             4    7     1       0.2112101954E-01       4    7    1         0.1111873823E+01      0.2395808304E+01
          0                 2           2             4    7     1      -0.2054509040E-02       4    7    1        -0.1111880425E+00      0.2395765974E+00
          0                 3           2             4    7     1       0.1399043535E-03       4    7    1         0.7783160104E-02      0.1676993965E-01
          0                 4           1             4    7     1      -0.5566925348E-05       4    7    1        -0.3183317122E-03      0.6858628778E-03

    ------------------------------------------------
       NWT REQUIRED            4 OUTER ITERATIONS 
       AND A TOTAL OF          7 INNER ITERATIONS.
    ------------------------------------------------

 NO OUTPUT CONTROL FOR STRESS PERIOD   13   TIME STEP    3
 
 SOLVING FOR HEAD 
                                                   Max.-Head-Change                         Max.-Flux-Residual
  Residual-Control   Outer-Iter.   Inner-Iter.     Column Row Layer    Maximum-Head-Change  Column Row Layer    Maximum-Flux-Residual          L2-NORM 
          0                 1           2             4    7     1       0.2084768207E-01       4    7    1         0.1097418328E+01      0.2369601755E+01
          0                 2           2             4    7     1      -0.2027920504E-02       4    7    1        -0.1097424758E+00      0.2369563365E+00
          0                 3           2             4    7     1       0.1380937753E-03       4    7    1         0.7681970545E-02      0.1658652377E-01
          0                 4           1             4    7     1      -0.5494881029E-05       4    7    1        -0.3141930592E-03      0.6783353821E-03

    ------------------------------------------------
       NWT REQUIRED            4 OUTER ITERATIONS 
       AND A TOTAL OF          7 INNER ITERATIONS.
    ------------------------------------------------

 NO OUTPUT CONTROL FOR STRESS PERIOD   13   TIME STEP    4
 
 SOLVING FOR HEAD 
                                                   Max.-Head-Change                         Max.-Flux-Residual
  Residual-Control   Outer-Iter.   Inner-Iter.     Column Row Layer    Maximum-Head-Change  Column Row Layer    Maximum-Flux-Residual          L2-NORM 
          0                 1           2             4    7     1       0.2057913815E-01       4    7    1         0.1083216770E+01      0.2343843577E+01
          0                 2           2             4    7     1      -0.2001798256E-02       4    7    1        -0.1083223034E+00      0.2343808469E+00
          0                 3           2             4    7     1       0.1363149494E-03       4    7    1         0.7582558585E-02      0.1640630753E-01
          0                 4           1             4    7     1      -0.5424099544E-05       4    7    1        -0.3101271050E-03      0.6709786983E-03

    ------------------------------------------------
       NWT REQUIRED            4 OUTER ITERATIONS 
       AND A TOTAL OF          7 INNER ITERATIONS.
    ------------------------------------------------

 NO OUTPUT CONTROL FOR STRESS PERIOD   13   TIME STEP    5
 
 SOLVING FOR HEAD 
                                                   Max.-Head-Change                         Max.-Flux-Residual
  Residual-Control   Outer-Iter.   Inner-Iter.     Column Row Layer    Maximum-Head-Change  Column Row Layer    Maximum-Flux-Residual          L2-NORM 
          0                 1           2             4    7     1       0.2031515202E-01       4    7    1         0.1069256419E+01      0.2318523691E+01
          0                 2           2             4    7     1      -0.1976119365E-02       4    7    1        -0.1069262521E+00      0.2318491714E+00
          0                 3           2             4    7     1       0.1345663146E-03       4    7    1         0.7484835103E-02      0.1622910654E-01
          0                 4           1             4    7     1      -0.5354519991E-05       4    7    1        -0.3061302195E-03      0.6637368517E-03

    ------------------------------------------------
       NWT REQUIRED            4 OUTER ITERATIONS 
       AND A TOTAL OF          7 INNER ITERATIONS.
    ------------------------------------------------

 NO OUTPUT CONTROL FOR STRESS PERIOD   13   TIME STEP    6
 
 SOLVING FOR HEAD 
                                                   Max.-Head-Change                         Max.-Flux-Residual
  Residual-Control   Outer-Iter.   Inner-Iter.     Column Row Layer    Maximum-Head-Change  Column Row Layer    Maximum-Flux-Residual          L2-NORM 
          0                 1           2             4    7     1       0.2005590041E-01       4    7    1         0.1055547043E+01      0.2293636812E+01
          0                 2           2             4    7     1      -0.1950901020E-02       4    7    1        -0.1055552988E+00      0.2293607027E+00
          0                 3           2             4    7     1       0.1328490410E-03       4    7    1         0.7388868475E-02      0.1605494476E-01
          0                 4           1             4    7     1      -0.5286188192E-05       4    7    1        -0.3022051806E-03      0.6566335354E-03

    ------------------------------------------------
       NWT REQUIRED            4 OUTER ITERATIONS 
       AND A TOTAL OF          7 INNER ITERATIONS.
    ------------------------------------------------

 NO OUTPUT CONTROL FOR STRESS PERIOD   13   TIME STEP    7
 
 SOLVING FOR HEAD 
                                                   Max.-Head-Change                         Max.-Flux-Residual
  Residual-Control   Outer-Iter.   Inner-Iter.     Column Row Layer    Maximum-Head-Change  Column Row Layer    Maximum-Flux-Residual          L2-NORM 
          0                 1           2             4    7     1       0.1980100851E-01       4    7    1         0.1042068483E+01      0.2269162391E+01
          0                 2           2             4    7     1      -0.1926106761E-02       4    7    1        -0.1042074274E+00      0.2269134985E+00
          0                 3           2             4    7     1       0.1311606463E-03       4    7    1         0.7294517607E-02      0.1588361949E-01
          0                 4           1             4    7     1      -0.5219005365E-05       4    7    1        -0.2983462127E-03      0.6497222314E-03

    ------------------------------------------------
       NWT REQUIRED            4 OUTER ITERATIONS 
       AND A TOTAL OF          7 INNER ITERATIONS.
    ------------------------------------------------

 NO OUTPUT CONTROL FOR STRESS PERIOD   13   TIME STEP    8
 
 SOLVING FOR HEAD 
                                                   Max.-Head-Change                         Max.-Flux-Residual
  Residual-Control   Outer-Iter.   Inner-Iter.     Column Row Layer    Maximum-Head-Change  Column Row Layer    Maximum-Flux-Residual          L2-NORM 
          0                 1           2             4    7     1       0.1955065694E-01       4    7    1         0.1028830629E+01      0.2245099585E+01
          0                 2           2             4    7     1      -0.1901754161E-02       4    7    1        -0.1028836271E+00      0.2245074397E+00
          0                 3           2             4    7     1       0.1295023265E-03       4    7    1         0.7201851683E-02      0.1571526674E-01
          0                 4           1             4    7     1      -0.5153019060E-05       4    7    1        -0.2945561650E-03      0.6427584229E-03

    ------------------------------------------------
       NWT REQUIRED            4 OUTER ITERATIONS 
       AND A TOTAL OF          7 INNER ITERATIONS.
    ------------------------------------------------

 NO OUTPUT CONTROL FOR STRESS PERIOD   13   TIME STEP    9
 
 SOLVING FOR HEAD 
                                                   Max.-Head-Change                         Max.-Flux-Residual
  Residual-Control   Outer-Iter.   Inner-Iter.     Column Row Layer    Maximum-Head-Change  Column Row Layer    Maximum-Flux-Residual          L2-NORM 
          0                 1           2             4    7     1       0.1930474452E-01       4    7    1         0.1015828184E+01      0.2221441771E+01
          0                 2           2             4    7     1      -0.1877833374E-02       4    7    1        -0.1015833682E+00      0.2221417840E+00
          0                 3           1             4    7     1       0.1278734136E-03       4    7    1         0.7110833636E-02      0.1554969893E-01
          0                 4           1             4    7     1      -0.5088205214E-05       4    7    1        -0.2908335223E-03      0.6359644270E-03

    ------------------------------------------------
       NWT REQUIRED            4 OUTER ITERATIONS 
       AND A TOTAL OF          6 INNER ITERATIONS.
    ------------------------------------------------

 NO OUTPUT CONTROL FOR STRESS PERIOD   13   TIME STEP   10
 
 SOLVING FOR HEAD 
                                                   Max.-Head-Change                         Max.-Flux-Residual
  Residual-Control   Outer-Iter.   Inner-Iter.     Column Row Layer    Maximum-Head-Change  Column Row Layer    Maximum-Flux-Residual          L2-NORM 
          0                 1           2             4    7     1       0.1906290287E-01       4    7    1         0.1003041239E+01      0.2198170325E+01
          0                 2           2             4    7     1      -0.1854308569E-02       4    7    1        -0.1003046597E+00      0.2198148545E+00
          0                 3           1             4    7     1       0.1262714638E-03       4    7    1         0.7021324151E-02      0.1538681442E-01
          0                 4           1             4    7     1      -0.5024462171E-05       4    7    1        -0.2871725792E-03      0.6293111345E-03

    ------------------------------------------------
       NWT REQUIRED            4 OUTER ITERATIONS 
       AND A TOTAL OF          6 INNER ITERATIONS.
    ------------------------------------------------

 NO OUTPUT CONTROL FOR STRESS PERIOD   13   TIME STEP   11
 
 SOLVING FOR HEAD 
                                                   Max.-Head-Change                         Max.-Flux-Residual
  Residual-Control   Outer-Iter.   Inner-Iter.     Column Row Layer    Maximum-Head-Change  Column Row Layer    Maximum-Flux-Residual          L2-NORM 
          0                 1           2             4    7     1       0.1882531753E-01       4    7    1         0.9904800207E+00      0.2175280643E+01
          0                 2           2             4    7     1      -0.1831197792E-02       4    7    1        -0.9904852416E-01      0.2175260465E+00
          0                 3           1             4    7     1       0.1246977071E-03       4    7    1         0.6933394715E-02      0.1522661961E-01
          0                 4           1             4    7     1      -0.4961840930E-05       4    7    1        -0.2835762657E-03      0.6227717376E-03

    ------------------------------------------------
       NWT REQUIRED            4 OUTER ITERATIONS 
       AND A TOTAL OF          6 INNER ITERATIONS.
    ------------------------------------------------

 NO OUTPUT CONTROL FOR STRESS PERIOD   13   TIME STEP   12
 
 SOLVING FOR HEAD 
                                                   Max.-Head-Change                         Max.-Flux-Residual
  Residual-Control   Outer-Iter.   Inner-Iter.     Column Row Layer    Maximum-Head-Change  Column Row Layer    Maximum-Flux-Residual          L2-NORM 
          0                 1           2             4    7     1       0.1859176192E-01       4    7    1         0.9781321537E+00      0.2152764227E+01
          0                 2           2             4    7     1      -0.1808479003E-02       4    7    1        -0.9781372419E-01      0.2152744954E+00
          0                 3           1             4    7     1       0.1231506443E-03       4    7    1         0.6846958848E-02      0.1506900816E-01
          0                 4           1             4    7     1      -0.4900281972E-05       4    7    1        -0.2800410293E-03      0.6163058129E-03

    ------------------------------------------------
       NWT REQUIRED            4 OUTER ITERATIONS 
       AND A TOTAL OF          6 INNER ITERATIONS.
    ------------------------------------------------

 NO OUTPUT CONTROL FOR STRESS PERIOD   13   TIME STEP   13
 
 SOLVING FOR HEAD 
                                                   Max.-Head-Change                         Max.-Flux-Residual
  Residual-Control   Outer-Iter.   Inner-Iter.     Column Row Layer    Maximum-Head-Change  Column Row Layer    Maximum-Flux-Residual          L2-NORM 
          0                 1           2             4    7     1       0.1836228524E-01       4    7    1         0.9660005534E+00      0.2130611532E+01
          0                 2           2             4    7     1      -0.1786156990E-02       4    7    1        -0.9660055129E-01      0.2130593059E+00
          0                 3           1             4    7     1       0.1216305998E-03       4    7    1         0.6762036829E-02      0.1491395794E-01
          0                 4           1             4    7     1      -0.4839797960E-05       4    7    1        -0.2765677114E-03      0.6099802144E-03

    ------------------------------------------------
       NWT REQUIRED            4 OUTER ITERATIONS 
       AND A TOTAL OF          6 INNER ITERATIONS.
    ------------------------------------------------

 NO OUTPUT CONTROL FOR STRESS PERIOD   13   TIME STEP   14
 
 SOLVING FOR HEAD 
                                                   Max.-Head-Change                         Max.-Flux-Residual
  Residual-Control   Outer-Iter.   Inner-Iter.     Column Row Layer    Maximum-Head-Change  Column Row Layer    Maximum-Flux-Residual          L2-NORM 
          0                 1           2             4    7     1       0.1813679316E-01       4    7    1         0.9540804405E+00      0.2108817885E+01
          0                 2           2             4    7     1      -0.1764222573E-02       4    7    1        -0.9540852747E-01      0.2108800900E+00
          0                 3           1             4    7     1       0.1201369492E-03       4    7    1         0.6678595234E-02      0.1476143181E-01
          0                 4           1             4    7     1      -0.4780364372E-05       4    7    1        -0.2731549607E-03      0.6037176235E-03

    ------------------------------------------------
       NWT REQUIRED            4 OUTER ITERATIONS 
       AND A TOTAL OF          6 INNER ITERATIONS.
    ------------------------------------------------

 NO OUTPUT CONTROL FOR STRESS PERIOD   13   TIME STEP   15
 
 SOLVING FOR HEAD 
                                                   Max.-Head-Change                         Max.-Flux-Residual
  Residual-Control   Outer-Iter.   Inner-Iter.     Column Row Layer    Maximum-Head-Change  Column Row Layer    Maximum-Flux-Residual          L2-NORM 
          0                 1           2             4    7     1       0.1791506515E-01       4    7    1         0.9423595898E+00      0.2087372746E+01
          0                 2           2             4    7     1      -0.1742654304E-02       4    7    1        -0.9423643022E-01      0.2087356728E+00
          0                 3           1             4    7     1       0.1186682317E-03       4    7    1         0.6596548510E-02      0.1461132782E-01
          0                 4           1             4    7     1      -0.4721922724E-05       4    7    1        -0.2697992350E-03      0.5975963069E-03

    ------------------------------------------------
       NWT REQUIRED            4 OUTER ITERATIONS 
       AND A TOTAL OF          6 INNER ITERATIONS.
    ------------------------------------------------

 NO OUTPUT CONTROL FOR STRESS PERIOD   13   TIME STEP   16
 
 SOLVING FOR HEAD 
                                                   Max.-Head-Change                         Max.-Flux-Residual
  Residual-Control   Outer-Iter.   Inner-Iter.     Column Row Layer    Maximum-Head-Change  Column Row Layer    Maximum-Flux-Residual          L2-NORM 
          0                 1           2             4    7     1       0.1769715673E-01       4    7    1         0.9308412336E+00      0.2066271109E+01
          0                 2           2             4    7     1      -0.1721457581E-02       4    7    1        -0.9308458276E-01      0.2066255723E+00
          0                 3           1             4    7     1       0.1172248152E-03       4    7    1         0.6515919275E-02      0.1446362847E-01
          0                 4           1             4    7     1      -0.4664487407E-05       4    7    1        -0.2665014831E-03      0.5915455393E-03

    ------------------------------------------------
       NWT REQUIRED            4 OUTER ITERATIONS 
       AND A TOTAL OF          6 INNER ITERATIONS.
    ------------------------------------------------

 NO OUTPUT CONTROL FOR STRESS PERIOD   13   TIME STEP   17
 
 SOLVING FOR HEAD 
                                                   Max.-Head-Change                         Max.-Flux-Residual
  Residual-Control   Outer-Iter.   Inner-Iter.     Column Row Layer    Maximum-Head-Change  Column Row Layer    Maximum-Flux-Residual          L2-NORM 
          0                 1           2             4    7     1       0.1748284611E-01       4    7    1         0.9195135835E+00      0.2045494085E+01
          0                 2           2             4    7     1      -0.1700611189E-02       4    7    1        -0.9195180624E-01      0.2045724796E+00
          0                 3           1             4    7     1       0.1158052543E-03       4    7    1         0.6436624968E-02      0.1431991336E-01
          0                 4           1             4    7     1      -0.4608001546E-05       4    7    1        -0.2632583328E-03      0.5857438167E-03

    ------------------------------------------------
       NWT REQUIRED            4 OUTER ITERATIONS 
       AND A TOTAL OF          6 INNER ITERATIONS.
    ------------------------------------------------

 NO OUTPUT CONTROL FOR STRESS PERIOD   13   TIME STEP   18
 
 SOLVING FOR HEAD 
                                                   Max.-Head-Change                         Max.-Flux-Residual
  Residual-Control   Outer-Iter.   Inner-Iter.     Column Row Layer    Maximum-Head-Change  Column Row Layer    Maximum-Flux-Residual          L2-NORM 
          0                 1           2             4    7     1       0.1727232590E-01       4    7    1         0.9083871224E+00      0.2025034904E+01
          0                 2           2             4    7     1      -0.1680132790E-02       4    7    1        -0.9083914897E-01      0.2025022938E+00
          0                 3           1             4    7     1       0.1144107534E-03       4    7    1         0.6358739031E-02      0.1417500022E-01
          0                 4           1             4    7     1      -0.4552513497E-05       4    7    1        -0.2600728217E-03      0.5797443017E-03

    ------------------------------------------------
       NWT REQUIRED            4 OUTER ITERATIONS 
       AND A TOTAL OF          6 INNER ITERATIONS.
    ------------------------------------------------

 NO OUTPUT CONTROL FOR STRESS PERIOD   13   TIME STEP   19
 
 SOLVING FOR HEAD 
                                                   Max.-Head-Change                         Max.-Flux-Residual
  Residual-Control   Outer-Iter.   Inner-Iter.     Column Row Layer    Maximum-Head-Change  Column Row Layer    Maximum-Flux-Residual          L2-NORM 
          0                 1           2             4    7     1       0.1706524370E-01       4    7    1         0.8974425592E+00      0.2004871767E+01
          0                 2           2             4    7     1      -0.1659989179E-02       4    7    1        -0.8974468176E-01      0.2004858463E+00
          0                 3           1             4    7     1       0.1130390495E-03       4    7    1         0.6282126397E-02      0.1403385989E-01
          0                 4           1             4    7     1      -0.4497932077E-05       4    7    1        -0.2569393546E-03      0.5739666308E-03

    ------------------------------------------------
       NWT REQUIRED            4 OUTER ITERATIONS 
       AND A TOTAL OF          6 INNER ITERATIONS.
    ------------------------------------------------

 NO OUTPUT CONTROL FOR STRESS PERIOD   13   TIME STEP   20
 
 SOLVING FOR HEAD 
                                                   Max.-Head-Change                         Max.-Flux-Residual
  Residual-Control   Outer-Iter.   Inner-Iter.     Column Row Layer    Maximum-Head-Change  Column Row Layer    Maximum-Flux-Residual          L2-NORM 
          0                 1           2             4    7     1       0.1686165434E-01       4    7    1         0.8866835667E+00      0.1985015500E+01
          0                 2           2             4    7     1      -0.1640185329E-02       4    7    1        -0.8866877195E-01      0.1985002800E+00
          0                 3           1             4    7     1       0.1116904822E-03       4    7    1         0.6206812775E-02      0.1389486925E-01
          0                 4           1             4    7     1      -0.4444271448E-05       4    7    1        -0.2538590265E-03      0.5683169502E-03

    ------------------------------------------------
       NWT REQUIRED            4 OUTER ITERATIONS 
       AND A TOTAL OF          6 INNER ITERATIONS.
    ------------------------------------------------

 NO OUTPUT CONTROL FOR STRESS PERIOD   13   TIME STEP   21
 
 SOLVING FOR HEAD 
                                                   Max.-Head-Change                         Max.-Flux-Residual
  Residual-Control   Outer-Iter.   Inner-Iter.     Column Row Layer    Maximum-Head-Change  Column Row Layer    Maximum-Flux-Residual          L2-NORM 
          0                 1           2             4    7     1       0.1666148434E-01       4    7    1         0.8761056725E+00      0.1965471808E+01
          0                 2           2             4    7     1      -0.1620714094E-02       4    7    1        -0.8761097226E-01      0.1965459283E+00
          0                 3           1             4    7     1       0.1103645650E-03       4    7    1         0.6132766875E-02      0.1375807833E-01
          0                 4           1             4    7     1      -0.4391511807E-05       4    7    1        -0.2508305356E-03      0.5626986198E-03

    ------------------------------------------------
       NWT REQUIRED            4 OUTER ITERATIONS 
       AND A TOTAL OF          6 INNER ITERATIONS.
    ------------------------------------------------

 NO OUTPUT CONTROL FOR STRESS PERIOD   13   TIME STEP   22
 
 SOLVING FOR HEAD 
                                                   Max.-Head-Change                         Max.-Flux-Residual
  Residual-Control   Outer-Iter.   Inner-Iter.     Column Row Layer    Maximum-Head-Change  Column Row Layer    Maximum-Flux-Residual          L2-NORM 
          0                 1           2             4    7     1       0.1646479474E-01       4    7    1         0.8657124018E+00      0.1946236852E+01
          0                 2           2             4    7     1      -0.1601581412E-02       4    7    1        -0.8657163524E-01      0.1946224974E+00
          0                 3           1             4    7     1       0.1090617016E-03       4    7    1         0.6060013346E-02      0.1362344190E-01
          0                 4           1             4    7     1      -0.4339669618E-05       4    7    1        -0.2478549040E-03      0.5571970716E-03

    ------------------------------------------------
       NWT REQUIRED            4 OUTER ITERATIONS 
       AND A TOTAL OF          6 INNER ITERATIONS.
    ------------------------------------------------

 NO OUTPUT CONTROL FOR STRESS PERIOD   13   TIME STEP   23
 
 SOLVING FOR HEAD 
                                                   Max.-Head-Change                         Max.-Flux-Residual
  Residual-Control   Outer-Iter.   Inner-Iter.     Column Row Layer    Maximum-Head-Change  Column Row Layer    Maximum-Flux-Residual          L2-NORM 
          0                 1           2             4    7     1       0.1627123303E-01       4    7    1         0.8554849152E+00      0.1927287628E+01
          0                 2           2             4    7     1      -0.1582752992E-02       4    7    1        -0.8554887687E-01      0.1927275870E+00
          0                 3           1             4    7     1       0.1077795575E-03       4    7    1         0.5988420331E-02      0.1349080206E-01
          0                 4           1             4    7     1      -0.4288651974E-05       4    7    1        -0.2449267490E-03      0.5517670443E-03

    ------------------------------------------------
       NWT REQUIRED            4 OUTER ITERATIONS 
       AND A TOTAL OF          6 INNER ITERATIONS.
    ------------------------------------------------

 NO OUTPUT CONTROL FOR STRESS PERIOD   13   TIME STEP   24
 
 SOLVING FOR HEAD 
                                                   Max.-Head-Change                         Max.-Flux-Residual
  Residual-Control   Outer-Iter.   Inner-Iter.     Column Row Layer    Maximum-Head-Change  Column Row Layer    Maximum-Flux-Residual          L2-NORM 
          0                 1           2             4    7     1       0.1608087239E-01       4    7    1         0.8454269400E+00      0.1908629184E+01
          0                 2           2             4    7     1      -0.1564235953E-02       4    7    1        -0.8454306990E-01      0.1908617637E+00
          0                 3           1             4    7     1       0.1065186170E-03       4    7    1         0.5918013886E-02      0.1336020420E-01
          0                 4           1             4    7     1      -0.4238477523E-05       4    7    1        -0.2420471137E-03      0.5464268770E-03

    ------------------------------------------------
       NWT REQUIRED            4 OUTER ITERATIONS 
       AND A TOTAL OF          6 INNER ITERATIONS.
    ------------------------------------------------

 NO OUTPUT CONTROL FOR STRESS PERIOD   13   TIME STEP   25
 
 SOLVING FOR HEAD 
                                                   Max.-Head-Change                         Max.-Flux-Residual
  Residual-Control   Outer-Iter.   Inner-Iter.     Column Row Layer    Maximum-Head-Change  Column Row Layer    Maximum-Flux-Residual          L2-NORM 
          0                 1           2             4    7     1       0.1589377510E-01       4    7    1         0.8355422717E+00      0.1890258648E+01
          0                 2           2             4    7     1      -0.1546036353E-02       4    7    1        -0.8355459390E-01      0.1890247557E+00
          0                 3           1             4    7     1       0.1052792934E-03       4    7    1         0.5848820641E-02      0.1323161731E-01
          0                 4           1             4    7     1      -0.4189163997E-05       4    7    1        -0.2392171168E-03      0.5412306098E-03

    ------------------------------------------------
       NWT REQUIRED            4 OUTER ITERATIONS 
       AND A TOTAL OF          6 INNER ITERATIONS.
    ------------------------------------------------

 NO OUTPUT CONTROL FOR STRESS PERIOD   13   TIME STEP   26
 
 SOLVING FOR HEAD 
                                                   Max.-Head-Change                         Max.-Flux-Residual
  Residual-Control   Outer-Iter.   Inner-Iter.     Column Row Layer    Maximum-Head-Change  Column Row Layer    Maximum-Flux-Residual          L2-NORM 
          0                 1           2             4    7     1       0.1570960088E-01       4    7    1         0.8258121311E+00      0.1872165184E+01
          0                 2           2             4    7     1      -0.1528121091E-02       4    7    1        -0.8258157092E-01      0.1872154481E+00
          0                 3           1             4    7     1       0.1040593316E-03       4    7    1         0.5780709084E-02      0.1310496770E-01
          0                 4           1             4    7     1      -0.4140620790E-05       4    7    1        -0.2364313491E-03      0.5359933864E-03

    ------------------------------------------------
       NWT REQUIRED            4 OUTER ITERATIONS 
       AND A TOTAL OF          6 INNER ITERATIONS.
    ------------------------------------------------

 NO OUTPUT CONTROL FOR STRESS PERIOD   13   TIME STEP   27
 
 SOLVING FOR HEAD 
                                                   Max.-Head-Change                         Max.-Flux-Residual
  Residual-Control   Outer-Iter.   Inner-Iter.     Column Row Layer    Maximum-Head-Change  Column Row Layer    Maximum-Flux-Residual          L2-NORM 
          0                 1           2             4    7     1       0.1552855488E-01       4    7    1         0.8162482197E+00      0.1854340077E+01
          0                 2           2             4    7     1      -0.1510510125E-02       4    7    1        -0.8162517111E-01      0.1854329676E+00
          0                 3           1             4    7     1       0.1028600912E-03       4    7    1         0.5713761147E-02      0.1298018148E-01
          0                 4           1             4    7     1      -0.4092901781E-05       4    7    1        -0.2336931711E-03      0.5309067930E-03

    ------------------------------------------------
       NWT REQUIRED            4 OUTER ITERATIONS 
       AND A TOTAL OF          6 INNER ITERATIONS.
    ------------------------------------------------

 NO OUTPUT CONTROL FOR STRESS PERIOD   13   TIME STEP   28
 
 SOLVING FOR HEAD 
                                                   Max.-Head-Change                         Max.-Flux-Residual
  Residual-Control   Outer-Iter.   Inner-Iter.     Column Row Layer    Maximum-Head-Change  Column Row Layer    Maximum-Flux-Residual          L2-NORM 
          0                 1           2             4    7     1       0.1535056822E-01       4    7    1         0.8068465027E+00      0.1836787746E+01
          0                 2           2             4    7     1      -0.1493196750E-02       4    7    1        -0.8068499096E-01      0.1836782711E+00
          0                 3           1             4    7     1       0.1016811160E-03       4    7    1         0.5647948591E-02      0.1285736648E-01
          0                 4           1             4    7     1      -0.4045989241E-05       4    7    1        -0.2310014379E-03      0.5258557863E-03

    ------------------------------------------------
       NWT REQUIRED            4 OUTER ITERATIONS 
       AND A TOTAL OF          6 INNER ITERATIONS.
    ------------------------------------------------

 NO OUTPUT CONTROL FOR STRESS PERIOD   13   TIME STEP   29
 
 SOLVING FOR HEAD 
                                                   Max.-Head-Change                         Max.-Flux-Residual
  Residual-Control   Outer-Iter.   Inner-Iter.     Column Row Layer    Maximum-Head-Change  Column Row Layer    Maximum-Flux-Residual          L2-NORM 
          0                 1           2             4    7     1       0.1517530192E-01       4    7    1         0.7975887345E+00      0.1819489058E+01
          0                 2           2             4    7     1      -0.1476147997E-02       4    7    1        -0.7975920594E-01      0.1819479107E+00
          0                 3           1             4    7     1       0.1005201601E-03       4    7    1         0.5583143682E-02      0.1273625762E-01
          0                 4           1             4    7     1      -0.3999793716E-05       4    7    1        -0.2283509116E-03      0.5209111043E-03

    ------------------------------------------------
       NWT REQUIRED            4 OUTER ITERATIONS 
       AND A TOTAL OF          6 INNER ITERATIONS.
    ------------------------------------------------

 NO OUTPUT CONTROL FOR STRESS PERIOD   13   TIME STEP   30



 STREAM LISTING     PERIOD     13   STEP       30

 LAYER ROW COL. STREAM  RCH.  FLOW INTO     FLOW TO   FLOW OUT OF   OVRLND.     DIRECT     STREAM       STREAM     STREAM     STREAM   STREAMBED  STREAMBED
                SEG.NO.  NO.  STRM. RCH.    AQUIFER    STRM. RCH.    RUNOFF     PRECIP       ET          HEAD       DEPTH      WIDTH   CONDCTNC.   GRADIENT

   1    1    1     1     1    8.6249E+00  1.3546E-01   8.4895E+00  0.000E+00  0.000E+00  0.000E+00  1.09390E+03  8.549E-01  7.809E+00  3.514E-02  1.285E+00
   1    2    2     1     2    8.4895E+00  2.0809E-01   8.2814E+00  0.000E+00  0.000E+00  0.000E+00  1.08891E+03  8.492E-01  7.723E+00  5.406E-02  1.283E+00
   1    3    3     1     3    8.2814E+00  1.7583E-01   8.1056E+00  0.000E+00  0.000E+00  0.000E+00  1.08326E+03  8.427E-01  7.626E+00  4.576E-02  1.281E+00
   1    3    4     1     4    8.1056E+00  1.6058E-01   7.9450E+00  0.000E+00  0.000E+00  0.000E+00  1.07824E+03  8.369E-01  7.541E+00  4.185E-02  1.279E+00
   1    4    5     2     1    5.9450E+00  2.7323E-01   5.6717E+00  0.000E+00  0.000E+00  0.000E+00  1.07244E+03  5.030E-01  1.200E+01  7.800E-02  1.168E+00
   1    5    6     2     2    5.6717E+00  2.0942E-01   5.4623E+00  0.000E+00  0.000E+00  0.000E+00  1.06700E+03  4.904E-01  1.200E+01  6.000E-02  1.163E+00
   1    6    6     2     3    5.4623E+00  2.0875E-01   5.2536E+00  0.000E+00  0.000E+00  0.000E+00  1.06227E+03  4.792E-01  1.200E+01  6.000E-02  1.160E+00
   1    7    6     2     4    5.2536E+00  2.0808E-01   5.0455E+00  0.000E+00  0.000E+00  0.000E+00  1.05754E+03  4.680E-01  1.200E+01  6.000E-02  1.156E+00
   1    8    6     2     5    5.0455E+00  2.0739E-01   4.8381E+00  0.000E+00  0.000E+00  0.000E+00  1.05282E+03  4.565E-01  1.200E+01  6.000E-02  1.152E+00
   1    3    5     3     1    2.0000E+00  2.8252E-01   1.7175E+00  0.000E+00  0.000E+00  0.000E+00  1.07555E+03  1.909E+00  9.636E+00  7.227E-02  1.955E+00
   1    3    6     3     2    1.7175E+00  2.4905E-01   1.4684E+00  0.000E+00  0.000E+00  0.000E+00  1.07264E+03  1.727E+00  8.909E+00  6.682E-02  1.864E+00
   1    3    7     3     3    1.4684E+00  1.9718E-01   1.2712E+00  0.000E+00  0.000E+00  0.000E+00  1.06987E+03  1.555E+00  8.218E+00  5.547E-02  1.777E+00
   1    4    8     3     4    1.2712E+00  2.2567E-01   1.0456E+00  0.000E+00  0.000E+00  0.000E+00  1.06682E+03  1.364E+00  7.455E+00  6.709E-02  1.682E+00
   1    5    8     3     5    1.0456E+00  1.5790E-01   8.8768E-01  0.000E+00  0.000E+00  0.000E+00  1.06362E+03  1.164E+00  6.655E+00  4.991E-02  1.582E+00
   1    6    8     3     6    8.8768E-01  5.5980E-02   8.3170E-01  0.000E+00  0.000E+00  0.000E+00  1.06158E+03  1.036E+00  6.145E+00  1.844E-02  1.518E+00
   1    5   10     4     1    1.0000E+01  9.0919E-02   9.9091E+00  0.000E+00  0.000E+00  0.000E+00  1.07836E+03  6.368E-01  1.000E+01  2.500E-02  1.212E+00
   1    5    9     4     2    9.9091E+00  1.8158E-01   9.7275E+00  0.000E+00  0.000E+00  0.000E+00  1.07154E+03  6.315E-01  1.000E+01  5.000E-02  1.211E+00
   1    6    8     4     3    9.7275E+00  1.2689E-01   9.6006E+00  0.000E+00  0.000E+00  0.000E+00  1.06381E+03  6.256E-01  1.000E+01  3.500E-02  1.209E+00
   1    6    8     5     1    1.0432E+01  2.2686E-01   1.0205E+01  0.000E+00  0.000E+00  0.000E+00  1.05868E+03  6.790E-01  1.542E+01  6.166E-02  1.226E+00
   1    7    7     5     2    1.0205E+01  2.7894E-01   9.9265E+00  0.000E+00  0.000E+00  0.000E+00  1.05417E+03  6.732E-01  1.519E+01  7.594E-02  1.224E+00
   1    8    7     5     3    9.9265E+00  1.9221E-01   9.7343E+00  0.000E+00  0.000E+00  0.000E+00  1.04992E+03  6.676E-01  1.497E+01  5.241E-02  1.223E+00
   1    8    6     5     4    9.7343E+00  1.3577E-01   9.5985E+00  0.000E+00  0.000E+00  0.000E+00  1.04691E+03  6.637E-01  1.482E+01  3.706E-02  1.221E+00
   1    9    6     6     1    1.4437E+01  2.3244E-01   1.4204E+01  0.000E+00  0.000E+00  0.000E+00  1.04360E+03  8.741E-01  1.200E+01  6.000E-02  1.291E+00
   1   10    7     6     2    1.4204E+01  2.3193E-01   1.3972E+01  0.000E+00  0.000E+00  0.000E+00  1.03905E+03  8.655E-01  1.200E+01  6.000E-02  1.289E+00
   1   11    7     6     3    1.3972E+01  2.3142E-01   1.3741E+01  0.000E+00  0.000E+00  0.000E+00  1.03449E+03  8.570E-01  1.200E+01  6.000E-02  1.286E+00
   1   12    7     6     4    1.3741E+01  2.3090E-01   1.3510E+01  0.000E+00  0.000E+00  0.000E+00  1.02994E+03  8.484E-01  1.200E+01  6.000E-02  1.283E+00
   1   13    7     6     5    1.3510E+01 -1.6571E-02   1.3527E+01  0.000E+00  0.000E+00  0.000E+00  1.02675E+03  8.443E-01  1.200E+01  2.400E-01 -2.302E-02
   1   14    9     7     1    1.5000E+02  1.3696E+00   1.4863E+02  0.000E+00  0.000E+00  0.000E+00  1.03987E+03  2.288E+00  5.529E+01  5.593E-01  8.163E-01
   1   13    8     7     2    1.4863E+02  1.9209E+00   1.4671E+02  0.000E+00  0.000E+00  0.000E+00  1.03478E+03  2.279E+00  5.525E+01  6.148E-01  1.042E+00
   1   13    7     7     3    1.4671E+02  1.6006E+00   1.4511E+02  0.000E+00  0.000E+00  0.000E+00  1.02969E+03  2.269E+00  5.521E+01  5.584E-01  9.554E-01
   1   13    6     8     1    1.5864E+02  9.8653E-01   1.5765E+02  0.000E+00  0.000E+00  0.000E+00  1.02475E+03  2.873E+00  4.166E+01  4.245E-01  7.746E-01
   1   13    5     8     2    1.5765E+02  2.4611E-01   1.5740E+02  0.000E+00  0.000E+00  0.000E+00  1.01849E+03  2.869E+00  4.160E+01  4.239E-01  1.935E-01
   1   13    4     8     3    1.5740E+02 -2.1792E+00   1.5958E+02  0.000E+00  0.000E+00  0.000E+00  1.01225E+03  2.876E+00  4.170E+01  4.249E+00 -1.710E-01
   1   13    3     8     4    1.5958E+02 -3.5234E+00   1.6311E+02  0.000E+00  0.000E+00  0.000E+00  1.00602E+03  2.895E+00  4.198E+01  4.278E+00 -2.746E-01
   1   13    2     8     5    1.6311E+02 -2.5491E+00   1.6565E+02  0.000E+00  0.000E+00  0.000E+00  9.99790E+02  2.915E+00  4.227E+01  4.308E+00 -1.973E-01
   1   13    1     8     6    1.6565E+02 -1.9735E+00   1.6763E+02  0.000E+00  0.000E+00  0.000E+00  9.94805E+02  2.930E+00  4.249E+01  2.598E+00 -2.532E-01
   1    8    6     9     1    0.0000E+00  0.0000E+00   0.0000E+00  0.000E+00  0.000E+00  0.000E+00  1.07875E+03  0.000E+00  4.000E+00  0.000E+00  1.000E+00
   1    8    5     9     2    0.0000E+00  0.0000E+00   0.0000E+00  0.000E+00  0.000E+00  0.000E+00  1.07825E+03  0.000E+00  4.000E+00  0.000E+00  1.000E+00





UNSATURATED ZONE PACKAGE VOLUMETRIC BUDGET FOR  TIME STEP    30 STRESS PERIOD   13
  ------------------------------------------------------------------------------



     CUMULATIVE VOLUMES      L**3       RATES FOR THIS TIME STEP      L**3/T
     ------------------                 ------------------------

           IN:                                      IN:
           ---                                      ---
        INFILTRATION =   622851691.1389          INFILTRATION =           4.4075

          OUT:                                     OUT:
          ----                                     ----
              UZF ET =   498190071.9905                UZF ET =           0.7250
        UZF RECHARGE =       73224.0000          UZF RECHARGE =       0.0000E+00

            IN - OUT =   124588395.1484              IN - OUT =           3.6825

          STORAGE:                                 STORAGE:
          --------                                 --------
      STORAGE CHANGE =   124588386.8156        STORAGE CHANGE =           3.6825

 PERCENT DISCREPANCY IS DIFFERENCE BETWEEN IN-OUT MINUS CHANGE IN STORAGE
 DIVIDED BY THE AVERAGE OF IN AND OUT TIMES 100

 PERCENT DISCREPANCY =           0.00     PERCENT DISCREPANCY =           0.00






1
  VOLUMETRIC BUDGET FOR AGRICULTURAL FIELDS AT  END OF TIME STEP   30, STRESS PERIOD  13
  ------------------------------------------------------------------------------

     CUMULATIVE VOLUMES      L**3       RATES FOR THIS TIME STEP      L**3/T
     ------------------                 ------------------------

           IN:                                      IN:
           ---                                      ---
               AG WELLS  =   266612848.0000                 AG WELLS  =           0.0000
      DIVERSION SEGMENTS =   217175360.0000        DIVERSION SEGMENTS =           0.0000
           GW IRRIGATION =           0.0000             GW IRRIGATION =           0.0000
           SW IRRIGATION =           0.0000             SW IRRIGATION =           0.0000
        SYSTEM LOSSES GW =           0.0000          SYSTEM LOSSES GW =           0.0000
        SYSTEM LOSSES SW =           0.0000          SYSTEM LOSSES SW =           0.0000

                TOTAL IN =   483788224.0000                  TOTAL IN =           0.0000

          OUT:                                     OUT:
          ----                                     ----
               AG WELLS  =           0.0000                 AG WELLS  =           0.0000
      DIVERSION SEGMENTS =           0.0000        DIVERSION SEGMENTS =           0.0000
           GW IRRIGATION =   266612848.0000             GW IRRIGATION =           0.0000
           SW IRRIGATION =   217179728.0000             SW IRRIGATION =           0.0000
        SYSTEM LOSSES GW =           0.0000          SYSTEM LOSSES GW =           0.0000
        SYSTEM LOSSES SW =           0.0000          SYSTEM LOSSES SW =           0.0000

               TOTAL OUT =   483792576.0000                 TOTAL OUT =           0.0000

                IN - OUT =       -4352.0000                  IN - OUT =           0.0000

     PERCENT DISCREPANCY =          -0.00         PERCENT DISCREPANCY =           0.00



1
  VOLUMETRIC BUDGET FOR ENTIRE MODEL AT END OF TIME STEP   30, STRESS PERIOD  13
  ------------------------------------------------------------------------------

     CUMULATIVE VOLUMES      L**3       RATES FOR THIS TIME STEP      L**3/T
     ------------------                 ------------------------

           IN:                                      IN:
           ---                                      ---
             STORAGE     =   389447968.0000               STORAGE     =           4.8281
       CONSTANT HEAD     =           0.0000         CONSTANT HEAD     =           0.0000
     HEAD DEP BOUNDS     =     9112164.0000       HEAD DEP BOUNDS     =           0.2881
      STREAM LEAKAGE     =   370668320.0000        STREAM LEAKAGE     =          11.2387
        UZF RECHARGE     =       73223.9531          UZF RECHARGE     =           0.0000
               GW ET     =           0.0000                 GW ET     =           0.0000
     SURFACE LEAKAGE     =           0.0000       SURFACE LEAKAGE     =           0.0000
           AG WELLS      =           0.0000             AG WELLS      =           0.0000

                TOTAL IN =   769301632.0000                  TOTAL IN =          16.3549

          OUT:                                     OUT:
          ----                                     ----
             STORAGE     =   166639840.0000               STORAGE     =           5.8256
       CONSTANT HEAD     =           0.0000         CONSTANT HEAD     =           0.0000
     HEAD DEP BOUNDS     =     9113387.0000       HEAD DEP BOUNDS     =           0.2875
      STREAM LEAKAGE     =   326938336.0000        STREAM LEAKAGE     =          10.2418
        UZF RECHARGE     =           0.0000          UZF RECHARGE     =           0.0000
               GW ET     =           0.0000                 GW ET     =           0.0000
     SURFACE LEAKAGE     =           0.0000       SURFACE LEAKAGE     =           0.0000
           AG WELLS      =   266612848.0000             AG WELLS      =           0.0000

               TOTAL OUT =   769304448.0000                 TOTAL OUT =          16.3549

                IN - OUT =       -2816.0000                  IN - OUT =       7.6294E-06

     PERCENT DISCREPANCY =          -0.00         PERCENT DISCREPANCY =           0.00






         TIME SUMMARY AT END OF TIME STEP   30 IN STRESS PERIOD   13
                    SECONDS     MINUTES      HOURS       DAYS        YEARS
                    -----------------------------------------------------------
   TIME STEP LENGTH  87667.      1461.1      24.352      1.0147     2.77799E-03
 STRESS PERIOD TIME 2.63000E+06  43833.      730.56      30.440     8.33397E-02
         TOTAL TIME 3.16463E+07 5.27439E+05  8790.6      366.28      1.0028    
1
1
                            STRESS PERIOD NO.   14, LENGTH =   2630000.    
                            -----------------------------------------------

                              NUMBER OF TIME STEPS =    30

                               MULTIPLIER FOR DELT =     1.000

                            INITIAL TIME STEP SIZE =   87666.66    

 REUSING NON-PARAMETER GHB CELLS FROM LAST STRESS PERIOD

      2 GHB CELLS

 REUSING STREAM SEGMENT DATA FROM LAST STRESS PERIOD



            AREAL INFILTRATION RATE
 READING ON UNIT   19 WITH FORMAT: (10F4.0)            

            1           2           3           4           5           6           7           8           9          10
 ........................................................................................................................
   1   1.2000E-09   0.000       0.000       0.000       0.000       0.000       0.000       0.000       0.000       0.000    
   2   2.1000E-09  2.0000E-09  8.0000E-10  8.5000E-09   0.000       0.000       0.000       0.000       0.000       0.000    
   3   5.0000E-10  1.1000E-09  8.8000E-09  5.5000E-09   0.000       0.000       0.000       0.000       0.000       0.000    
   4   8.5000E-09  1.1000E-09  1.1000E-09  1.1000E-09  2.0000E-09   0.000       0.000       0.000       0.000       0.000    
   5   8.5000E-09  1.1000E-09  1.1000E-09  1.1000E-09  1.1000E-09   0.000       0.000       0.000       0.000       0.000    
   6   8.5000E-09  5.2000E-09  2.1000E-09  1.1000E-09  1.5000E-09   0.000       0.000       0.000       0.000       0.000    
   7   8.5000E-09  5.2000E-09  2.1000E-09  1.2000E-09  2.0000E-09   0.000       0.000       0.000       0.000       0.000    
   8   5.0000E-10  5.2000E-09  2.1000E-09  1.2000E-09  5.0000E-09   0.000       0.000       0.000       0.000       0.000    
   9   5.0000E-10  5.2000E-09  2.1000E-09  1.2000E-09  5.0000E-09   0.000       0.000       0.000       0.000       0.000    
  10   5.0000E-10  5.2000E-09  2.1000E-09  1.2000E-09  5.8000E-09   0.000       0.000       0.000       0.000       0.000    
  11   1.0000E-10  1.1000E-09  1.1000E-09  1.2000E-09  5.0000E-09   0.000       0.000       0.000       0.000       0.000    
  12   1.1000E-09  1.1000E-09  1.1000E-09  1.1000E-09  2.0000E-09   0.000       0.000       0.000       0.000       0.000    
  13   1.1000E-09  2.2000E-09  2.2000E-09  2.1000E-09  1.0000E-09   0.000       0.000       0.000       0.000       0.000    
  14   2.0000E-10  5.5000E-09  5.5000E-09  5.2000E-09  1.0000E-09   0.000       0.000       0.000       0.000       0.000    
  15    0.000      8.8000E-09  8.8000E-09   0.000       0.000       0.000       0.000       0.000       0.000       0.000    

                  ET RATE =  5.000000E-10

 USING ET EXTINCTION DEPTH FROM PREVIOUS STRESS PERIOD. CURRENT PERIOD IS:      14

 USING EXTINCTION WATER CONTENT FROM PREVIOUS STRESS PERIOD. CURRENT PERIOD IS:      14

 USING AIR ENTRY PRESSURE FROM PREVIOUS STRESS PERIOD. CURRENT PERIOD IS:      14

 USING ROOT PRESSURE HEAD FROM PREVIOUS STRESS PERIOD. CURRENT PERIOD IS:      14

 USING ROOT ACTIVITY FROM PREVIOUS STRESS PERIOD. CURRENT PERIOD IS:      14

 PROCESSING AG STRESS PERIOD DATA

 READING AG STRESS PERIOD DATA

 READING IRRIGATION SEGMENT

 READING IRRIGATION WELL

 READING SUPPLEMENTAL WELL

 END PROCESSING AG STRESS PERIOD DATA OPTIONS
 
 SOLVING FOR HEAD 
                                                   Max.-Head-Change                         Max.-Flux-Residual
  Residual-Control   Outer-Iter.   Inner-Iter.     Column Row Layer    Maximum-Head-Change  Column Row Layer    Maximum-Flux-Residual          L2-NORM 
          0                 1           2             4    7     1       0.1500296281E-01       4    7    1         0.7884866864E+00      0.1804022775E+01
          0                 2           2             4    7     1      -0.1459383984E-02       4    7    1        -0.7884899315E-01      0.1803988093E+00
          0                 3           1             4    7     1       0.9937859416E-04       4    7    1         0.5519428835E-02      0.1262760747E-01

    ------------------------------------------------
       NWT REQUIRED            3 OUTER ITERATIONS 
       AND A TOTAL OF          5 INNER ITERATIONS.
    ------------------------------------------------

 NO OUTPUT CONTROL FOR STRESS PERIOD   14   TIME STEP    1
 
 SOLVING FOR HEAD 
                                                   Max.-Head-Change                         Max.-Flux-Residual
  Residual-Control   Outer-Iter.   Inner-Iter.     Column Row Layer    Maximum-Head-Change  Column Row Layer    Maximum-Flux-Residual          L2-NORM 
          0                 1           2             4    7     1       0.1483341490E-01       4    7    1         0.7795333385E+00      0.1790358255E+01
          0                 2           2             4    7     1      -0.1442891481E-02       4    7    1        -0.7795365064E-01      0.1790260602E+00
          0                 3           1             4    7     1       0.9825551665E-04       4    7    1         0.5456754896E-02      0.1253096346E-01

    ------------------------------------------------
       NWT REQUIRED            3 OUTER ITERATIONS 
       AND A TOTAL OF          5 INNER ITERATIONS.
    ------------------------------------------------

 NO OUTPUT CONTROL FOR STRESS PERIOD   14   TIME STEP    2
 
 SOLVING FOR HEAD 
                                                   Max.-Head-Change                         Max.-Flux-Residual
  Residual-Control   Outer-Iter.   Inner-Iter.     Column Row Layer    Maximum-Head-Change  Column Row Layer    Maximum-Flux-Residual          L2-NORM 
          0                 1           2             4    7     1       0.1466651804E-01       4    7    1         0.7707204911E+00      0.1773621921E+01
          0                 2           2             4    7     1      -0.1426656856E-02       4    7    1        -0.7707235837E-01      0.1773533309E+00
          0                 3           1             4    7     1       0.9715000018E-04       4    7    1         0.5395064494E-02      0.1241391389E-01

    ------------------------------------------------
       NWT REQUIRED            3 OUTER ITERATIONS 
       AND A TOTAL OF          5 INNER ITERATIONS.
    ------------------------------------------------

 NO OUTPUT CONTROL FOR STRESS PERIOD   14   TIME STEP    3
 
 SOLVING FOR HEAD 
                                                   Max.-Head-Change                         Max.-Flux-Residual
  Residual-Control   Outer-Iter.   Inner-Iter.     Column Row Layer    Maximum-Head-Change  Column Row Layer    Maximum-Flux-Residual          L2-NORM 
          0                 1           2             4    7     1       0.1450222017E-01       4    7    1         0.7620450959E+00      0.1757142065E+01
          0                 2           2             4    7     1      -0.1410675044E-02       4    7    1        -0.7620481150E-01      0.1757061993E+00
          0                 3           1             4    7     1       0.9606169897E-04       4    7    1         0.5334336239E-02      0.1229872820E-01

    ------------------------------------------------
       NWT REQUIRED            3 OUTER ITERATIONS 
       AND A TOTAL OF          5 INNER ITERATIONS.
    ------------------------------------------------

 NO OUTPUT CONTROL FOR STRESS PERIOD   14   TIME STEP    4
 
 SOLVING FOR HEAD 
                                                   Max.-Head-Change                         Max.-Flux-Residual
  Residual-Control   Outer-Iter.   Inner-Iter.     Column Row Layer    Maximum-Head-Change  Column Row Layer    Maximum-Flux-Residual          L2-NORM 
          0                 1           2             4    7     1       0.1434060041E-01       4    7    1         0.7535117917E+00      0.1740921875E+01
          0                 2           2             4    7     1      -0.1394953743E-02       4    7    1        -0.7535147395E-01      0.1740848584E+00
          0                 3           1             4    7     1       0.9499113772E-04       4    7    1         0.5274602652E-02      0.1218522490E-01

    ------------------------------------------------
       NWT REQUIRED            3 OUTER ITERATIONS 
       AND A TOTAL OF          5 INNER ITERATIONS.
    ------------------------------------------------

 NO OUTPUT CONTROL FOR STRESS PERIOD   14   TIME STEP    5
 
 SOLVING FOR HEAD 
                                                   Max.-Head-Change                         Max.-Flux-Residual
  Residual-Control   Outer-Iter.   Inner-Iter.     Column Row Layer    Maximum-Head-Change  Column Row Layer    Maximum-Flux-Residual          L2-NORM 
          0                 1           2             4    7     1       0.1418160269E-01       4    7    1         0.7451173426E+00      0.1724947496E+01
          0                 2           2             4    7     1      -0.1379487498E-02       4    7    1        -0.7451202211E-01      0.1724880713E+00
          0                 3           1             4    7     1       0.9393794509E-04       4    7    1         0.5215841085E-02      0.1207355740E-01

    ------------------------------------------------
       NWT REQUIRED            3 OUTER ITERATIONS 
       AND A TOTAL OF          5 INNER ITERATIONS.
    ------------------------------------------------

 NO OUTPUT CONTROL FOR STRESS PERIOD   14   TIME STEP    6
 
 SOLVING FOR HEAD 
                                                   Max.-Head-Change                         Max.-Flux-Residual
  Residual-Control   Outer-Iter.   Inner-Iter.     Column Row Layer    Maximum-Head-Change  Column Row Layer    Maximum-Flux-Residual          L2-NORM 
          0                 1           2             4    7     1       0.1402503378E-01       4    7    1         0.7368515043E+00      0.1709207700E+01
          0                 2           2             4    7     1      -0.1364257512E-02       4    7    1        -0.7368543151E-01      0.1709146332E+00
          0                 3           1             4    7     1       0.9290084021E-04       4    7    1         0.5157979770E-02      0.1196344186E-01

    ------------------------------------------------
       NWT REQUIRED            3 OUTER ITERATIONS 
       AND A TOTAL OF          5 INNER ITERATIONS.
    ------------------------------------------------

 NO OUTPUT CONTROL FOR STRESS PERIOD   14   TIME STEP    7
 
 SOLVING FOR HEAD 
                                                   Max.-Head-Change                         Max.-Flux-Residual
  Residual-Control   Outer-Iter.   Inner-Iter.     Column Row Layer    Maximum-Head-Change  Column Row Layer    Maximum-Flux-Residual          L2-NORM 
          0                 1           2             4    7     1       0.1387097837E-01       4    7    1         0.7287189332E+00      0.1693704957E+01
          0                 2           2             4    7     1      -0.1349272024E-02       4    7    1        -0.7287216783E-01      0.1693649026E+00
          0                 3           1             4    7     1       0.9188038506E-04       4    7    1         0.5101051358E-02      0.1185502483E-01

    ------------------------------------------------
       NWT REQUIRED            3 OUTER ITERATIONS 
       AND A TOTAL OF          5 INNER ITERATIONS.
    ------------------------------------------------

 NO OUTPUT CONTROL FOR STRESS PERIOD   14   TIME STEP    8
 
 SOLVING FOR HEAD 
                                                   Max.-Head-Change                         Max.-Flux-Residual
  Residual-Control   Outer-Iter.   Inner-Iter.     Column Row Layer    Maximum-Head-Change  Column Row Layer    Maximum-Flux-Residual          L2-NORM 
          0                 1           2             4    7     1       0.1371938082E-01       4    7    1         0.7207166833E+00      0.1678433001E+01
          0                 2           2             4    7     1      -0.1334525622E-02       4    7    1        -0.7207193644E-01      0.1678382016E+00
          0                 3           1             4    7     1       0.9087621030E-04       4    7    1         0.5045035183E-02      0.1174828240E-01

    ------------------------------------------------
       NWT REQUIRED            3 OUTER ITERATIONS 
       AND A TOTAL OF          5 INNER ITERATIONS.
    ------------------------------------------------

 NO OUTPUT CONTROL FOR STRESS PERIOD   14   TIME STEP    9
 
 SOLVING FOR HEAD 
                                                   Max.-Head-Change                         Max.-Flux-Residual
  Residual-Control   Outer-Iter.   Inner-Iter.     Column Row Layer    Maximum-Head-Change  Column Row Layer    Maximum-Flux-Residual          L2-NORM 
          0                 1           2             4    7     1       0.1357005594E-01       4    7    1         0.7128345306E+00      0.1663378604E+01
          0                 2           2             4    7     1      -0.1320000290E-02       4    7    1        -0.7128371494E-01      0.1663330718E+00
          0                 3           1             4    7     1       0.8988709010E-04       4    7    1         0.4989859713E-02      0.1164285449E-01

    ------------------------------------------------
       NWT REQUIRED            3 OUTER ITERATIONS 
       AND A TOTAL OF          5 INNER ITERATIONS.
    ------------------------------------------------

 NO OUTPUT CONTROL FOR STRESS PERIOD   14   TIME STEP   10
 
 SOLVING FOR HEAD 
                                                   Max.-Head-Change                         Max.-Flux-Residual
  Residual-Control   Outer-Iter.   Inner-Iter.     Column Row Layer    Maximum-Head-Change  Column Row Layer    Maximum-Flux-Residual          L2-NORM 
          0                 1           2             4    7     1       0.1342322799E-01       4    7    1         0.7050848898E+00      0.1648546702E+01
          0                 2           2             4    7     1      -0.1305717845E-02       4    7    1        -0.7050874480E-01      0.1648502029E+00
          0                 3           1             4    7     1       0.8891451005E-04       4    7    1         0.4935611851E-02      0.1153905791E-01

    ------------------------------------------------
       NWT REQUIRED            3 OUTER ITERATIONS 
       AND A TOTAL OF          5 INNER ITERATIONS.
    ------------------------------------------------

 NO OUTPUT CONTROL FOR STRESS PERIOD   14   TIME STEP   11
 
 SOLVING FOR HEAD 
                                                   Max.-Head-Change                         Max.-Flux-Residual
  Residual-Control   Outer-Iter.   Inner-Iter.     Column Row Layer    Maximum-Head-Change  Column Row Layer    Maximum-Flux-Residual          L2-NORM 
          0                 1           2             4    7     1       0.1327856840E-01       4    7    1         0.6974500325E+00      0.1633925141E+01
          0                 2           2             4    7     1      -0.1291646324E-02       4    7    1        -0.6974525316E-01      0.1633883887E+00
          0                 3           1             4    7     1       0.8795629204E-04       4    7    1         0.4882167464E-02      0.1143681364E-01

    ------------------------------------------------
       NWT REQUIRED            3 OUTER ITERATIONS 
       AND A TOTAL OF          5 INNER ITERATIONS.
    ------------------------------------------------

 NO OUTPUT CONTROL FOR STRESS PERIOD   14   TIME STEP   12
 
 SOLVING FOR HEAD 
                                                   Max.-Head-Change                         Max.-Flux-Residual
  Residual-Control   Outer-Iter.   Inner-Iter.     Column Row Layer    Maximum-Head-Change  Column Row Layer    Maximum-Flux-Residual          L2-NORM 
          0                 1           2             4    7     1       0.1313603548E-01       4    7    1         0.6899276004E+00      0.1619510803E+01
          0                 2           2             4    7     1      -0.1277781672E-02       4    7    1        -0.6899300419E-01      0.1619472472E+00
          0                 3           1             4    7     1       0.8701216153E-04       4    7    1         0.4829510079E-02      0.1133593422E-01

    ------------------------------------------------
       NWT REQUIRED            3 OUTER ITERATIONS 
       AND A TOTAL OF          5 INNER ITERATIONS.
    ------------------------------------------------

 NO OUTPUT CONTROL FOR STRESS PERIOD   14   TIME STEP   13
 
 SOLVING FOR HEAD 
                                                   Max.-Head-Change                         Max.-Flux-Residual
  Residual-Control   Outer-Iter.   Inner-Iter.     Column Row Layer    Maximum-Head-Change  Column Row Layer    Maximum-Flux-Residual          L2-NORM 
          0                 1           2             4    7     1       0.1299585690E-01       4    7    1         0.6825301120E+00      0.1605304663E+01
          0                 2           2             4    7     1      -0.1264146036E-02       4    7    1        -0.6825324975E-01      0.1605268426E+00
          0                 3           1             4    7     1       0.8608362590E-04       4    7    1         0.4777727286E-02      0.1123653879E-01

    ------------------------------------------------
       NWT REQUIRED            3 OUTER ITERATIONS 
       AND A TOTAL OF          5 INNER ITERATIONS.
    ------------------------------------------------

 NO OUTPUT CONTROL FOR STRESS PERIOD   14   TIME STEP   14
 
 SOLVING FOR HEAD 
                                                   Max.-Head-Change                         Max.-Flux-Residual
  Residual-Control   Outer-Iter.   Inner-Iter.     Column Row Layer    Maximum-Head-Change  Column Row Layer    Maximum-Flux-Residual          L2-NORM 
          0                 1           2             4    7     1       0.1285784278E-01       4    7    1         0.6752473528E+00      0.1591294440E+01
          0                 2           2             4    7     1      -0.1250720945E-02       4    7    1        -0.6752496838E-01      0.1591260685E+00
          0                 3           1             4    7     1       0.8516942793E-04       4    7    1         0.4726747623E-02      0.1113849494E-01

    ------------------------------------------------
       NWT REQUIRED            3 OUTER ITERATIONS 
       AND A TOTAL OF          5 INNER ITERATIONS.
    ------------------------------------------------

 NO OUTPUT CONTROL FOR STRESS PERIOD   14   TIME STEP   15
 
 SOLVING FOR HEAD 
                                                   Max.-Head-Change                         Max.-Flux-Residual
  Residual-Control   Outer-Iter.   Inner-Iter.     Column Row Layer    Maximum-Head-Change  Column Row Layer    Maximum-Flux-Residual          L2-NORM 
          0                 1           2             4    7     1       0.1272181593E-01       4    7    1         0.6680694768E+00      0.1577481330E+01
          0                 2           2             4    7     1      -0.1237525080E-02       4    7    1        -0.6680717545E-01      0.1577935221E+00
          0                 3           1             4    7     1       0.8427083892E-04       4    7    1         0.4676502136E-02      0.1104525068E-01

    ------------------------------------------------
       NWT REQUIRED            3 OUTER ITERATIONS 
       AND A TOTAL OF          5 INNER ITERATIONS.
    ------------------------------------------------

 NO OUTPUT CONTROL FOR STRESS PERIOD   14   TIME STEP   16
 
 SOLVING FOR HEAD 
                                                   Max.-Head-Change                         Max.-Flux-Residual
  Residual-Control   Outer-Iter.   Inner-Iter.     Column Row Layer    Maximum-Head-Change  Column Row Layer    Maximum-Flux-Residual          L2-NORM 
          0                 1           2             4    7     1       0.1258788272E-01       4    7    1         0.6610074090E+00      0.1563823001E+01
          0                 2           2             4    7     1      -0.1224461045E-02       4    7    1        -0.6610096366E-01      0.1563793227E+00
          0                 3           1             4    7     1       0.8338122764E-04       4    7    1         0.4627067356E-02      0.1094628505E-01

    ------------------------------------------------
       NWT REQUIRED            3 OUTER ITERATIONS 
       AND A TOTAL OF          5 INNER ITERATIONS.
    ------------------------------------------------

 NO OUTPUT CONTROL FOR STRESS PERIOD   14   TIME STEP   17
 
 SOLVING FOR HEAD 
                                                   Max.-Head-Change                         Max.-Flux-Residual
  Residual-Control   Outer-Iter.   Inner-Iter.     Column Row Layer    Maximum-Head-Change  Column Row Layer    Maximum-Flux-Residual          L2-NORM 
          0                 1           2             4    7     1       0.1245584146E-01       4    7    1         0.6540430284E+00      0.1550327741E+01
          0                 2           2             4    7     1      -0.1211616957E-02       4    7    1        -0.6540452060E-01      0.1550299621E+00
          0                 3           1             4    7     1       0.8250659328E-04       4    7    1         0.4578316352E-02      0.1085184967E-01

    ------------------------------------------------
       NWT REQUIRED            3 OUTER ITERATIONS 
       AND A TOTAL OF          5 INNER ITERATIONS.
    ------------------------------------------------

 NO OUTPUT CONTROL FOR STRESS PERIOD   14   TIME STEP   18
 
 SOLVING FOR HEAD 
                                                   Max.-Head-Change                         Max.-Flux-Residual
  Residual-Control   Outer-Iter.   Inner-Iter.     Column Row Layer    Maximum-Head-Change  Column Row Layer    Maximum-Flux-Residual          L2-NORM 
          0                 1           2             4    7     1       0.1232589433E-01       4    7    1         0.6471895156E+00      0.1537027640E+01
          0                 2           2             4    7     1      -0.1198976572E-02       4    7    1        -0.6471916450E-01      0.1537001045E+00
          0                 3           1             4    7     1       0.8164583070E-04       4    7    1         0.4530341459E-02      0.1075875384E-01

    ------------------------------------------------
       NWT REQUIRED            3 OUTER ITERATIONS 
       AND A TOTAL OF          5 INNER ITERATIONS.
    ------------------------------------------------

 NO OUTPUT CONTROL FOR STRESS PERIOD   14   TIME STEP   19
 
 SOLVING FOR HEAD 
                                                   Max.-Head-Change                         Max.-Flux-Residual
  Residual-Control   Outer-Iter.   Inner-Iter.     Column Row Layer    Maximum-Head-Change  Column Row Layer    Maximum-Flux-Residual          L2-NORM 
          0                 1           2             4    7     1       0.1219786348E-01       4    7    1         0.6404372390E+00      0.1523910203E+01
          0                 2           2             4    7     1      -0.1186522591E-02       4    7    1        -0.6404393211E-01      0.1523884907E+00
          0                 3           1             4    7     1       0.8079776138E-04       4    7    1         0.4483075200E-02      0.1066697527E-01

    ------------------------------------------------
       NWT REQUIRED            3 OUTER ITERATIONS 
       AND A TOTAL OF          5 INNER ITERATIONS.
    ------------------------------------------------

 NO OUTPUT CONTROL FOR STRESS PERIOD   14   TIME STEP   20
 
 SOLVING FOR HEAD 
                                                   Max.-Head-Change                         Max.-Flux-Residual
  Residual-Control   Outer-Iter.   Inner-Iter.     Column Row Layer    Maximum-Head-Change  Column Row Layer    Maximum-Flux-Residual          L2-NORM 
          0                 1           2             4    7     1       0.1207157911E-01       4    7    1         0.6337769774E+00      0.1510967979E+01
          0                 2           2             4    7     1      -0.1174238497E-02       4    7    1        -0.6337790133E-01      0.1510943966E+00
          0                 3           1             4    7     1       0.7996126076E-04       4    7    1         0.4436453081E-02      0.1057636735E-01

    ------------------------------------------------
       NWT REQUIRED            3 OUTER ITERATIONS 
       AND A TOTAL OF          5 INNER ITERATIONS.
    ------------------------------------------------

 NO OUTPUT CONTROL FOR STRESS PERIOD   14   TIME STEP   21
 
 SOLVING FOR HEAD 
                                                   Max.-Head-Change                         Max.-Flux-Residual
  Residual-Control   Outer-Iter.   Inner-Iter.     Column Row Layer    Maximum-Head-Change  Column Row Layer    Maximum-Flux-Residual          L2-NORM 
          0                 1           2             4    7     1       0.1194727891E-01       4    7    1         0.6272219505E+00      0.1498207646E+01
          0                 2           2             4    7     1      -0.1162147411E-02       4    7    1        -0.6272239414E-01      0.1498184659E+00
          0                 3           1             4    7     1       0.7913790356E-04       4    7    1         0.4390567607E-02      0.1048706773E-01

    ------------------------------------------------
       NWT REQUIRED            3 OUTER ITERATIONS 
       AND A TOTAL OF          5 INNER ITERATIONS.
    ------------------------------------------------

 NO OUTPUT CONTROL FOR STRESS PERIOD   14   TIME STEP   22
 
 SOLVING FOR HEAD 
                                                   Max.-Head-Change                         Max.-Flux-Residual
  Residual-Control   Outer-Iter.   Inner-Iter.     Column Row Layer    Maximum-Head-Change  Column Row Layer    Maximum-Flux-Residual          L2-NORM 
          0                 1           2             4    7     1       0.1182479272E-01       4    7    1         0.6207624586E+00      0.1485621166E+01
          0                 2           2             4    7     1      -0.1150232779E-02       4    7    1        -0.6207644057E-01      0.1485599091E+00
          0                 3           1             4    7     1       0.7832656155E-04       4    7    1         0.4345350871E-02      0.1039900724E-01

    ------------------------------------------------
       NWT REQUIRED            3 OUTER ITERATIONS 
       AND A TOTAL OF          5 INNER ITERATIONS.
    ------------------------------------------------

 NO OUTPUT CONTROL FOR STRESS PERIOD   14   TIME STEP   23
 
 SOLVING FOR HEAD 
                                                   Max.-Head-Change                         Max.-Flux-Residual
  Residual-Control   Outer-Iter.   Inner-Iter.     Column Row Layer    Maximum-Head-Change  Column Row Layer    Maximum-Flux-Residual          L2-NORM 
          0                 1           2             4    7     1       0.1170408382E-01       4    7    1         0.6143970198E+00      0.1473202230E+01
          0                 2           2             4    7     1      -0.1138491031E-02       4    7    1        -0.6143989240E-01      0.1473181209E+00
          0                 3           1             4    7     1       0.7752699309E-04       4    7    1         0.4300792536E-02      0.1031205665E-01

    ------------------------------------------------
       NWT REQUIRED            3 OUTER ITERATIONS 
       AND A TOTAL OF          5 INNER ITERATIONS.
    ------------------------------------------------

 NO OUTPUT CONTROL FOR STRESS PERIOD   14   TIME STEP   24
 
 SOLVING FOR HEAD 
                                                   Max.-Head-Change                         Max.-Flux-Residual
  Residual-Control   Outer-Iter.   Inner-Iter.     Column Row Layer    Maximum-Head-Change  Column Row Layer    Maximum-Flux-Residual          L2-NORM 
          0                 1           2             4    7     1       0.1158524990E-01       4    7    1         0.6081310722E+00      0.1460948716E+01
          0                 2           2             4    7     1      -0.1126931669E-02       4    7    1        -0.6081329348E-01      0.1460928165E+00
          0                 3           1             4    7     1       0.7673984394E-04       4    7    1         0.4256930625E-02      0.1022628431E-01

    ------------------------------------------------
       NWT REQUIRED            3 OUTER ITERATIONS 
       AND A TOTAL OF          5 INNER ITERATIONS.
    ------------------------------------------------

 NO OUTPUT CONTROL FOR STRESS PERIOD   14   TIME STEP   25
 
 SOLVING FOR HEAD 
                                                   Max.-Head-Change                         Max.-Flux-Residual
  Residual-Control   Outer-Iter.   Inner-Iter.     Column Row Layer    Maximum-Head-Change  Column Row Layer    Maximum-Flux-Residual          L2-NORM 
          0                 1           2             4    7     1       0.1146798799E-01       4    7    1         0.6019476560E+00      0.1448861247E+01
          0                 2           2             4    7     1      -0.1115525222E-02       4    7    1        -0.6019494777E-01      0.1448841979E+00
          0                 3           1             4    7     1       0.7596310759E-04       4    7    1         0.4213646438E-02      0.1014169068E-01

    ------------------------------------------------
       NWT REQUIRED            3 OUTER ITERATIONS 
       AND A TOTAL OF          5 INNER ITERATIONS.
    ------------------------------------------------

 NO OUTPUT CONTROL FOR STRESS PERIOD   14   TIME STEP   26
 
 SOLVING FOR HEAD 
                                                   Max.-Head-Change                         Max.-Flux-Residual
  Residual-Control   Outer-Iter.   Inner-Iter.     Column Row Layer    Maximum-Head-Change  Column Row Layer    Maximum-Flux-Residual          L2-NORM 
          0                 1           2             4    7     1       0.1135254115E-01       4    7    1         0.5958604299E+00      0.1436934822E+01
          0                 2           2             4    7     1      -0.1104295333E-02       4    7    1        -0.5958622116E-01      0.1436916038E+00
          0                 3           1             4    7     1       0.7519839400E-04       4    7    1         0.4171035591E-02      0.1005824125E-01

    ------------------------------------------------
       NWT REQUIRED            3 OUTER ITERATIONS 
       AND A TOTAL OF          5 INNER ITERATIONS.
    ------------------------------------------------

 NO OUTPUT CONTROL FOR STRESS PERIOD   14   TIME STEP   27
 
 SOLVING FOR HEAD 
                                                   Max.-Head-Change                         Max.-Flux-Residual
  Residual-Control   Outer-Iter.   Inner-Iter.     Column Row Layer    Maximum-Head-Change  Column Row Layer    Maximum-Flux-Residual          L2-NORM 
          0                 1           2             4    7     1       0.1123873269E-01       4    7    1         0.5898599698E+00      0.1425166140E+01
          0                 2           2             4    7     1      -0.1093224815E-02       4    7    1        -0.5898617129E-01      0.1425147570E+00
          0                 3           1             4    7     1       0.7444453342E-04       4    7    1         0.4129032118E-02      0.9975831910E-02

    ------------------------------------------------
       NWT REQUIRED            3 OUTER ITERATIONS 
       AND A TOTAL OF          5 INNER ITERATIONS.
    ------------------------------------------------

 NO OUTPUT CONTROL FOR STRESS PERIOD   14   TIME STEP   28
 
 SOLVING FOR HEAD 
                                                   Max.-Head-Change                         Max.-Flux-Residual
  Residual-Control   Outer-Iter.   Inner-Iter.     Column Row Layer    Maximum-Head-Change  Column Row Layer    Maximum-Flux-Residual          L2-NORM 
          0                 1           2             4    7     1       0.1112667076E-01       4    7    1         0.5839518000E+00      0.1413554268E+01
          0                 2           2             4    7     1      -0.1082324190E-02       4    7    1        -0.5839535051E-01      0.1413536780E+00
          0                 3           1             4    7     1       0.7370224167E-04       4    7    1         0.4087674690E-02      0.9894599160E-02

    ------------------------------------------------
       NWT REQUIRED            3 OUTER ITERATIONS 
       AND A TOTAL OF          5 INNER ITERATIONS.
    ------------------------------------------------

 NO OUTPUT CONTROL FOR STRESS PERIOD   14   TIME STEP   29
 
 SOLVING FOR HEAD 
                                                   Max.-Head-Change                         Max.-Flux-Residual
  Residual-Control   Outer-Iter.   Inner-Iter.     Column Row Layer    Maximum-Head-Change  Column Row Layer    Maximum-Flux-Residual          L2-NORM 
          0                 1           2             4    7     1       0.1101618400E-01       4    7    1         0.5781268427E+00      0.1402098383E+01
          0                 2           2             4    7     1      -0.1071576786E-02       4    7    1        -0.5781285109E-01      0.1402081167E+00
          0                 3           1             4    7     1       0.7297038413E-04       4    7    1         0.4046899748E-02      0.9814384178E-02

    ------------------------------------------------
       NWT REQUIRED            3 OUTER ITERATIONS 
       AND A TOTAL OF          5 INNER ITERATIONS.
    ------------------------------------------------

 NO OUTPUT CONTROL FOR STRESS PERIOD   14   TIME STEP   30



 STREAM LISTING     PERIOD     14   STEP       30

 LAYER ROW COL. STREAM  RCH.  FLOW INTO     FLOW TO   FLOW OUT OF   OVRLND.     DIRECT     STREAM       STREAM     STREAM     STREAM   STREAMBED  STREAMBED
                SEG.NO.  NO.  STRM. RCH.    AQUIFER    STRM. RCH.    RUNOFF     PRECIP       ET          HEAD       DEPTH      WIDTH   CONDCTNC.   GRADIENT

   1    1    1     1     1    7.1251E+00  1.2038E-01   7.0047E+00  0.000E+00  0.000E+00  0.000E+00  1.09385E+03  8.024E-01  7.035E+00  3.166E-02  1.267E+00
   1    2    2     1     2    7.0047E+00  1.8492E-01   6.8198E+00  0.000E+00  0.000E+00  0.000E+00  1.08886E+03  7.976E-01  6.956E+00  4.869E-02  1.266E+00
   1    3    3     1     3    6.8198E+00  1.5635E-01   6.6635E+00  0.000E+00  0.000E+00  0.000E+00  1.08321E+03  7.929E-01  6.870E+00  4.122E-02  1.264E+00
   1    3    4     1     4    6.6635E+00  1.4286E-01   6.5206E+00  0.000E+00  0.000E+00  0.000E+00  1.07820E+03  7.886E-01  6.794E+00  3.771E-02  1.263E+00
   1    4    5     2     1    4.5206E+00  2.6715E-01   4.2534E+00  0.000E+00  0.000E+00  0.000E+00  1.07236E+03  4.251E-01  1.200E+01  7.800E-02  1.142E+00
   1    5    6     2     2    4.2534E+00  2.0467E-01   4.0488E+00  0.000E+00  0.000E+00  0.000E+00  1.06692E+03  4.112E-01  1.200E+01  6.000E-02  1.137E+00
   1    6    6     2     3    4.0488E+00  2.0394E-01   3.8448E+00  0.000E+00  0.000E+00  0.000E+00  1.06219E+03  3.989E-01  1.200E+01  6.000E-02  1.133E+00
   1    7    6     2     4    3.8448E+00  2.0319E-01   3.6417E+00  0.000E+00  0.000E+00  0.000E+00  1.05746E+03  3.865E-01  1.200E+01  6.000E-02  1.129E+00
   1    8    6     2     5    3.6417E+00  2.0242E-01   3.4392E+00  0.000E+00  0.000E+00  0.000E+00  1.05273E+03  3.737E-01  1.200E+01  6.000E-02  1.125E+00
   1    3    5     3     1    2.0000E+00  2.8252E-01   1.7175E+00  0.000E+00  0.000E+00  0.000E+00  1.07555E+03  1.909E+00  9.636E+00  7.227E-02  1.955E+00
   1    3    6     3     2    1.7175E+00  2.4905E-01   1.4684E+00  0.000E+00  0.000E+00  0.000E+00  1.07264E+03  1.727E+00  8.909E+00  6.682E-02  1.864E+00
   1    3    7     3     3    1.4684E+00  1.9718E-01   1.2712E+00  0.000E+00  0.000E+00  0.000E+00  1.06987E+03  1.555E+00  8.218E+00  5.547E-02  1.777E+00
   1    4    8     3     4    1.2712E+00  2.2567E-01   1.0456E+00  0.000E+00  0.000E+00  0.000E+00  1.06682E+03  1.364E+00  7.455E+00  6.709E-02  1.682E+00
   1    5    8     3     5    1.0456E+00  1.5790E-01   8.8768E-01  0.000E+00  0.000E+00  0.000E+00  1.06362E+03  1.164E+00  6.655E+00  4.991E-02  1.582E+00
   1    6    8     3     6    8.8768E-01  5.5980E-02   8.3170E-01  0.000E+00  0.000E+00  0.000E+00  1.06158E+03  1.036E+00  6.145E+00  1.844E-02  1.518E+00
   1    5   10     4     1    1.0000E+01  9.0919E-02   9.9091E+00  0.000E+00  0.000E+00  0.000E+00  1.07836E+03  6.368E-01  1.000E+01  2.500E-02  1.212E+00
   1    5    9     4     2    9.9091E+00  1.8158E-01   9.7275E+00  0.000E+00  0.000E+00  0.000E+00  1.07154E+03  6.315E-01  1.000E+01  5.000E-02  1.211E+00
   1    6    8     4     3    9.7275E+00  1.2689E-01   9.6006E+00  0.000E+00  0.000E+00  0.000E+00  1.06381E+03  6.256E-01  1.000E+01  3.500E-02  1.209E+00
   1    6    8     5     1    1.0432E+01  2.2686E-01   1.0205E+01  0.000E+00  0.000E+00  0.000E+00  1.05868E+03  6.790E-01  1.542E+01  6.166E-02  1.226E+00
   1    7    7     5     2    1.0205E+01  2.7894E-01   9.9265E+00  0.000E+00  0.000E+00  0.000E+00  1.05417E+03  6.732E-01  1.519E+01  7.594E-02  1.224E+00
   1    8    7     5     3    9.9265E+00  1.9221E-01   9.7343E+00  0.000E+00  0.000E+00  0.000E+00  1.04992E+03  6.676E-01  1.497E+01  5.241E-02  1.223E+00
   1    8    6     5     4    9.7343E+00  1.3577E-01   9.5985E+00  0.000E+00  0.000E+00  0.000E+00  1.04691E+03  6.637E-01  1.482E+01  3.706E-02  1.221E+00
   1    9    6     6     1    1.3038E+01  2.2931E-01   1.2808E+01  0.000E+00  0.000E+00  0.000E+00  1.04355E+03  8.218E-01  1.200E+01  6.000E-02  1.274E+00
   1   10    7     6     2    1.2808E+01  2.2878E-01   1.2580E+01  0.000E+00  0.000E+00  0.000E+00  1.03899E+03  8.131E-01  1.200E+01  6.000E-02  1.271E+00
   1   11    7     6     3    1.2580E+01  2.2826E-01   1.2351E+01  0.000E+00  0.000E+00  0.000E+00  1.03444E+03  8.043E-01  1.200E+01  6.000E-02  1.268E+00
   1   12    7     6     4    1.2351E+01  2.2772E-01   1.2124E+01  0.000E+00  0.000E+00  0.000E+00  1.02989E+03  7.954E-01  1.200E+01  6.000E-02  1.265E+00
   1   13    7     6     5    1.2124E+01 -2.4902E-02   1.2149E+01  0.000E+00  0.000E+00  0.000E+00  1.02670E+03  7.914E-01  1.200E+01  2.400E-01 -3.459E-02
   1   14    9     7     1    1.5000E+02  1.3699E+00   1.4863E+02  0.000E+00  0.000E+00  0.000E+00  1.03987E+03  2.288E+00  5.529E+01  5.593E-01  8.164E-01
   1   13    8     7     2    1.4863E+02  1.9238E+00   1.4671E+02  0.000E+00  0.000E+00  0.000E+00  1.03478E+03  2.279E+00  5.525E+01  6.148E-01  1.043E+00
   1   13    7     7     3    1.4671E+02  1.6107E+00   1.4510E+02  0.000E+00  0.000E+00  0.000E+00  1.02969E+03  2.269E+00  5.521E+01  5.584E-01  9.615E-01
   1   13    6     8     1    1.5724E+02  9.8942E-01   1.5625E+02  0.000E+00  0.000E+00  0.000E+00  1.02474E+03  2.864E+00  4.152E+01  4.231E-01  7.794E-01
   1   13    5     8     2    1.5625E+02  2.5138E-01   1.5600E+02  0.000E+00  0.000E+00  0.000E+00  1.01848E+03  2.859E+00  4.146E+01  4.225E-01  1.983E-01
   1   13    4     8     3    1.5600E+02 -2.1567E+00   1.5816E+02  0.000E+00  0.000E+00  0.000E+00  1.01224E+03  2.866E+00  4.156E+01  4.235E+00 -1.698E-01
   1   13    3     8     4    1.5816E+02 -3.5118E+00   1.6167E+02  0.000E+00  0.000E+00  0.000E+00  1.00601E+03  2.885E+00  4.184E+01  4.263E+00 -2.746E-01
   1   13    2     8     5    1.6167E+02 -2.5487E+00   1.6422E+02  0.000E+00  0.000E+00  0.000E+00  9.99781E+02  2.906E+00  4.213E+01  4.293E+00 -1.979E-01
   1   13    1     8     6    1.6422E+02 -1.9744E+00   1.6620E+02  0.000E+00  0.000E+00  0.000E+00  9.94796E+02  2.921E+00  4.235E+01  2.589E+00 -2.542E-01
   1    8    6     9     1    0.0000E+00  0.0000E+00   0.0000E+00  0.000E+00  0.000E+00  0.000E+00  1.07875E+03  0.000E+00  4.000E+00  0.000E+00  1.000E+00
   1    8    5     9     2    0.0000E+00  0.0000E+00   0.0000E+00  0.000E+00  0.000E+00  0.000E+00  1.07825E+03  0.000E+00  4.000E+00  0.000E+00  1.000E+00





UNSATURATED ZONE PACKAGE VOLUMETRIC BUDGET FOR  TIME STEP    30 STRESS PERIOD   14
  ------------------------------------------------------------------------------



     CUMULATIVE VOLUMES      L**3       RATES FOR THIS TIME STEP      L**3/T
     ------------------                 ------------------------

           IN:                                      IN:
           ---                                      ---
        INFILTRATION =   634443415.6970          INFILTRATION =           4.4075

          OUT:                                     OUT:
          ----                                     ----
              UZF ET =   500096821.8622                UZF ET =           0.7250
        UZF RECHARGE =       73224.0000          UZF RECHARGE =       0.0000E+00

            IN - OUT =   134273369.8348              IN - OUT =           3.6825

          STORAGE:                                 STORAGE:
          --------                                 --------
      STORAGE CHANGE =   134273361.4373        STORAGE CHANGE =           3.6825

 PERCENT DISCREPANCY IS DIFFERENCE BETWEEN IN-OUT MINUS CHANGE IN STORAGE
 DIVIDED BY THE AVERAGE OF IN AND OUT TIMES 100

 PERCENT DISCREPANCY =           0.00     PERCENT DISCREPANCY =           0.00






1
  VOLUMETRIC BUDGET FOR AGRICULTURAL FIELDS AT  END OF TIME STEP   30, STRESS PERIOD  14
  ------------------------------------------------------------------------------

     CUMULATIVE VOLUMES      L**3       RATES FOR THIS TIME STEP      L**3/T
     ------------------                 ------------------------

           IN:                                      IN:
           ---                                      ---
               AG WELLS  =   266612848.0000                 AG WELLS  =           0.0000
      DIVERSION SEGMENTS =   217175360.0000        DIVERSION SEGMENTS =           0.0000
           GW IRRIGATION =           0.0000             GW IRRIGATION =           0.0000
           SW IRRIGATION =           0.0000             SW IRRIGATION =           0.0000
        SYSTEM LOSSES GW =           0.0000          SYSTEM LOSSES GW =           0.0000
        SYSTEM LOSSES SW =           0.0000          SYSTEM LOSSES SW =           0.0000

                TOTAL IN =   483788224.0000                  TOTAL IN =           0.0000

          OUT:                                     OUT:
          ----                                     ----
               AG WELLS  =           0.0000                 AG WELLS  =           0.0000
      DIVERSION SEGMENTS =           0.0000        DIVERSION SEGMENTS =           0.0000
           GW IRRIGATION =   266612848.0000             GW IRRIGATION =           0.0000
           SW IRRIGATION =   217179728.0000             SW IRRIGATION =           0.0000
        SYSTEM LOSSES GW =           0.0000          SYSTEM LOSSES GW =           0.0000
        SYSTEM LOSSES SW =           0.0000          SYSTEM LOSSES SW =           0.0000

               TOTAL OUT =   483792576.0000                 TOTAL OUT =           0.0000

                IN - OUT =       -4352.0000                  IN - OUT =           0.0000

     PERCENT DISCREPANCY =          -0.00         PERCENT DISCREPANCY =           0.00



1
  VOLUMETRIC BUDGET FOR ENTIRE MODEL AT END OF TIME STEP   30, STRESS PERIOD  14
  ------------------------------------------------------------------------------

     CUMULATIVE VOLUMES      L**3       RATES FOR THIS TIME STEP      L**3/T
     ------------------                 ------------------------

           IN:                                      IN:
           ---                                      ---
             STORAGE     =   400981920.0000               STORAGE     =           3.8762
       CONSTANT HEAD     =           0.0000         CONSTANT HEAD     =           0.0000
     HEAD DEP BOUNDS     =     9869785.0000       HEAD DEP BOUNDS     =           0.2881
      STREAM LEAKAGE     =   399948608.0000        STREAM LEAKAGE     =          11.1466
        UZF RECHARGE     =       73223.9531          UZF RECHARGE     =           0.0000
               GW ET     =           0.0000                 GW ET     =           0.0000
     SURFACE LEAKAGE     =           0.0000       SURFACE LEAKAGE     =           0.0000
           AG WELLS      =           0.0000             AG WELLS      =           0.0000

                TOTAL IN =   810873536.0000                  TOTAL IN =          15.3108

          OUT:                                     OUT:
          ----                                     ----
             STORAGE     =   180449344.0000               STORAGE     =           4.8073
       CONSTANT HEAD     =           0.0000         CONSTANT HEAD     =           0.0000
     HEAD DEP BOUNDS     =     9869020.0000       HEAD DEP BOUNDS     =           0.2872
      STREAM LEAKAGE     =   353945632.0000        STREAM LEAKAGE     =          10.2166
        UZF RECHARGE     =           0.0000          UZF RECHARGE     =           0.0000
               GW ET     =           0.0000                 GW ET     =           0.0000
     SURFACE LEAKAGE     =           0.0000       SURFACE LEAKAGE     =           0.0000
           AG WELLS      =   266612848.0000             AG WELLS      =           0.0000

               TOTAL OUT =   810876864.0000                 TOTAL OUT =          15.3111

                IN - OUT =       -3328.0000                  IN - OUT =      -2.6226E-04

     PERCENT DISCREPANCY =          -0.00         PERCENT DISCREPANCY =          -0.00






         TIME SUMMARY AT END OF TIME STEP   30 IN STRESS PERIOD   14
                    SECONDS     MINUTES      HOURS       DAYS        YEARS
                    -----------------------------------------------------------
   TIME STEP LENGTH  87667.      1461.1      24.352      1.0147     2.77799E-03
 STRESS PERIOD TIME 2.63000E+06  43833.      730.56      30.440     8.33397E-02
         TOTAL TIME 3.42763E+07 5.71272E+05  9521.2      396.72      1.0862    
1
1
                            STRESS PERIOD NO.   15, LENGTH =   2630000.    
                            -----------------------------------------------

                              NUMBER OF TIME STEPS =    30

                               MULTIPLIER FOR DELT =     1.000

                            INITIAL TIME STEP SIZE =   87666.66    

 REUSING NON-PARAMETER GHB CELLS FROM LAST STRESS PERIOD

      2 GHB CELLS

 REUSING STREAM SEGMENT DATA FROM LAST STRESS PERIOD



            AREAL INFILTRATION RATE
 READING ON UNIT   19 WITH FORMAT: (10F4.0)            

            1           2           3           4           5           6           7           8           9          10
 ........................................................................................................................
   1   1.2000E-09   0.000       0.000       0.000       0.000       0.000       0.000       0.000       0.000       0.000    
   2   2.1000E-09  2.0000E-09  8.0000E-10  8.5000E-09   0.000       0.000       0.000       0.000       0.000       0.000    
   3   5.0000E-10  1.1000E-09  8.8000E-09  5.5000E-09   0.000       0.000       0.000       0.000       0.000       0.000    
   4   8.5000E-09  1.1000E-09  1.1000E-09  1.1000E-09  2.0000E-09   0.000       0.000       0.000       0.000       0.000    
   5   8.5000E-09  1.1000E-09  1.1000E-09  1.1000E-09  1.1000E-09   0.000       0.000       0.000       0.000       0.000    
   6   8.5000E-09  5.2000E-09  2.1000E-09  1.1000E-09  1.5000E-09   0.000       0.000       0.000       0.000       0.000    
   7   8.5000E-09  5.2000E-09  2.1000E-09  1.2000E-09  2.0000E-09   0.000       0.000       0.000       0.000       0.000    
   8   5.0000E-10  5.2000E-09  2.1000E-09  1.2000E-09  5.0000E-09   0.000       0.000       0.000       0.000       0.000    
   9   5.0000E-10  5.2000E-09  2.1000E-09  1.2000E-09  5.0000E-09   0.000       0.000       0.000       0.000       0.000    
  10   5.0000E-10  5.2000E-09  2.1000E-09  1.2000E-09  5.8000E-09   0.000       0.000       0.000       0.000       0.000    
  11   1.0000E-10  1.1000E-09  1.1000E-09  1.2000E-09  5.0000E-09   0.000       0.000       0.000       0.000       0.000    
  12   1.1000E-09  1.1000E-09  1.1000E-09  1.1000E-09  2.0000E-09   0.000       0.000       0.000       0.000       0.000    
  13   1.1000E-09  2.2000E-09  2.2000E-09  2.1000E-09  1.0000E-09   0.000       0.000       0.000       0.000       0.000    
  14   2.0000E-10  5.5000E-09  5.5000E-09  5.2000E-09  1.0000E-09   0.000       0.000       0.000       0.000       0.000    
  15    0.000      8.8000E-09  8.8000E-09   0.000       0.000       0.000       0.000       0.000       0.000       0.000    

                  ET RATE =  5.000000E-10

 USING ET EXTINCTION DEPTH FROM PREVIOUS STRESS PERIOD. CURRENT PERIOD IS:      15

 USING EXTINCTION WATER CONTENT FROM PREVIOUS STRESS PERIOD. CURRENT PERIOD IS:      15

 USING AIR ENTRY PRESSURE FROM PREVIOUS STRESS PERIOD. CURRENT PERIOD IS:      15

 USING ROOT PRESSURE HEAD FROM PREVIOUS STRESS PERIOD. CURRENT PERIOD IS:      15

 USING ROOT ACTIVITY FROM PREVIOUS STRESS PERIOD. CURRENT PERIOD IS:      15

 PROCESSING AG STRESS PERIOD DATA

 READING AG STRESS PERIOD DATA

 READING IRRIGATION SEGMENT

 READING IRRIGATION WELL

 READING SUPPLEMENTAL WELL

 END PROCESSING AG STRESS PERIOD DATA OPTIONS
 
 SOLVING FOR HEAD 
                                                   Max.-Head-Change                         Max.-Flux-Residual
  Residual-Control   Outer-Iter.   Inner-Iter.     Column Row Layer    Maximum-Head-Change  Column Row Layer    Maximum-Flux-Residual          L2-NORM 
          0                 1           2             4    7     1       0.1090724335E-01       4    7    1         0.5723835550E+00      0.1390788419E+01
          0                 2           2             4    7     1      -0.1060979778E-02       4    7    1        -0.5723851872E-01      0.1390771774E+00
          0                 3           1             4    7     1       0.7224876756E-04       4    7    1         0.4006696495E-02      0.9735244857E-02

    ------------------------------------------------
       NWT REQUIRED            3 OUTER ITERATIONS 
       AND A TOTAL OF          5 INNER ITERATIONS.
    ------------------------------------------------

 NO OUTPUT CONTROL FOR STRESS PERIOD   15   TIME STEP    1
 
 SOLVING FOR HEAD 
                                                   Max.-Head-Change                         Max.-Flux-Residual
  Residual-Control   Outer-Iter.   Inner-Iter.     Column Row Layer    Maximum-Head-Change  Column Row Layer    Maximum-Flux-Residual          L2-NORM 
          0                 1           2             4    7     1       0.1079982408E-01       4    7    1         0.5667204306E+00      0.1378598292E+01
          0                 2           2             4    7     1      -0.1052038201E-02       4    7    1        -0.5677184336E-01      0.1378890992E+00
          0                 3           1             4    7     1       0.7163987764E-04       4    7    1         0.3974029089E-02      0.9652179562E-02

    ------------------------------------------------
       NWT REQUIRED            3 OUTER ITERATIONS 
       AND A TOTAL OF          5 INNER ITERATIONS.
    ------------------------------------------------

 NO OUTPUT CONTROL FOR STRESS PERIOD   15   TIME STEP    2
 
 SOLVING FOR HEAD 
                                                   Max.-Head-Change                         Max.-Flux-Residual
  Residual-Control   Outer-Iter.   Inner-Iter.     Column Row Layer    Maximum-Head-Change  Column Row Layer    Maximum-Flux-Residual          L2-NORM 
          0                 1           2             4    7     1       0.1069004937E-01       4    7    1         0.5610631239E+00      0.1366967402E+01
          0                 2           2             4    7     1      -0.1039852819E-02       4    7    1        -0.5610648241E-01      0.1366967907E+00
          0                 3           1             4    7     1       0.7081009914E-04       4    7    1         0.3927453862E-02      0.9568766152E-02

    ------------------------------------------------
       NWT REQUIRED            3 OUTER ITERATIONS 
       AND A TOTAL OF          5 INNER ITERATIONS.
    ------------------------------------------------

 NO OUTPUT CONTROL FOR STRESS PERIOD   15   TIME STEP    3
 
 SOLVING FOR HEAD 
                                                   Max.-Head-Change                         Max.-Flux-Residual
  Residual-Control   Outer-Iter.   Inner-Iter.     Column Row Layer    Maximum-Head-Change  Column Row Layer    Maximum-Flux-Residual          L2-NORM 
          0                 1           2             4    7     1       0.1058348421E-01       4    7    1         0.5554371109E+00      0.1356062845E+01
          0                 2           2             4    7     1      -0.1029486874E-02       4    7    1        -0.5554387697E-01      0.1356063183E+00
          0                 3           1             4    7     1       0.7010421744E-04       4    7    1         0.3888071494E-02      0.9492445101E-02

    ------------------------------------------------
       NWT REQUIRED            3 OUTER ITERATIONS 
       AND A TOTAL OF          5 INNER ITERATIONS.
    ------------------------------------------------

 NO OUTPUT CONTROL FOR STRESS PERIOD   15   TIME STEP    4
 
 SOLVING FOR HEAD 
                                                   Max.-Head-Change                         Max.-Flux-Residual
  Residual-Control   Outer-Iter.   Inner-Iter.     Column Row Layer    Maximum-Head-Change  Column Row Layer    Maximum-Flux-Residual          L2-NORM 
          0                 1           2             4    7     1       0.1047867774E-01       4    7    1         0.5499044974E+00      0.1345313165E+01
          0                 2           2             4    7     1      -0.1019292004E-02       4    7    1        -0.5499061162E-01      0.1345313206E+00
          0                 3           1             4    7     1       0.6940998503E-04       4    7    1         0.3849342957E-02      0.9417185789E-02

    ------------------------------------------------
       NWT REQUIRED            3 OUTER ITERATIONS 
       AND A TOTAL OF          5 INNER ITERATIONS.
    ------------------------------------------------

 NO OUTPUT CONTROL FOR STRESS PERIOD   15   TIME STEP    5
 
 SOLVING FOR HEAD 
                                                   Max.-Head-Change                         Max.-Flux-Residual
  Residual-Control   Outer-Iter.   Inner-Iter.     Column Row Layer    Maximum-Head-Change  Column Row Layer    Maximum-Flux-Residual          L2-NORM 
          0                 1           2             4    7     1       0.1037544438E-01       4    7    1         0.5444557252E+00      0.1334694560E+01
          0                 2           2             4    7     1      -0.1009250154E-02       4    7    1        -0.5444573048E-01      0.1334694315E+00
          0                 3           1             4    7     1       0.6872617276E-04       4    7    1         0.3811201287E-02      0.9342852681E-02

    ------------------------------------------------
       NWT REQUIRED            3 OUTER ITERATIONS 
       AND A TOTAL OF          5 INNER ITERATIONS.
    ------------------------------------------------

 NO OUTPUT CONTROL FOR STRESS PERIOD   15   TIME STEP    6
 
 SOLVING FOR HEAD 
                                                   Max.-Head-Change                         Max.-Flux-Residual
  Residual-Control   Outer-Iter.   Inner-Iter.     Column Row Layer    Maximum-Head-Change  Column Row Layer    Maximum-Flux-Residual          L2-NORM 
          0                 1           2             4    7     1       0.1027387960E-01       4    7    1         0.5390958600E+00      0.1324217925E+01
          0                 2           2             4    7     1      -0.9993706157E-03       4    7    1        -0.5390974020E-01      0.1324217312E+00
          0                 3           1             4    7     1       0.6805341348E-04       4    7    1         0.3773681989E-02      0.9269515017E-02

    ------------------------------------------------
       NWT REQUIRED            3 OUTER ITERATIONS 
       AND A TOTAL OF          5 INNER ITERATIONS.
    ------------------------------------------------

 NO OUTPUT CONTROL FOR STRESS PERIOD   15   TIME STEP    7
 
 SOLVING FOR HEAD 
                                                   Max.-Head-Change                         Max.-Flux-Residual
  Residual-Control   Outer-Iter.   Inner-Iter.     Column Row Layer    Maximum-Head-Change  Column Row Layer    Maximum-Flux-Residual          L2-NORM 
          0                 1           2             4    7     1       0.1017380873E-01       4    7    1         0.5338151641E+00      0.1313878384E+01
          0                 2           2             4    7     1      -0.9896363940E-03       4    7    1        -0.5338166696E-01      0.1313877345E+00
          0                 3           1             4    7     1       0.6739054951E-04       4    7    1         0.3736716871E-02      0.9197120573E-02

    ------------------------------------------------
       NWT REQUIRED            3 OUTER ITERATIONS 
       AND A TOTAL OF          5 INNER ITERATIONS.
    ------------------------------------------------

 NO OUTPUT CONTROL FOR STRESS PERIOD   15   TIME STEP    8
 
 SOLVING FOR HEAD 
                                                   Max.-Head-Change                         Max.-Flux-Residual
  Residual-Control   Outer-Iter.   Inner-Iter.     Column Row Layer    Maximum-Head-Change  Column Row Layer    Maximum-Flux-Residual          L2-NORM 
          0                 1           2             4    7     1       0.1007519992E-01       4    7    1         0.5286119244E+00      0.1303671237E+01
          0                 2           2             4    7     1      -0.9800443937E-03       4    7    1        -0.5286133943E-01      0.1303669896E+00
          0                 3           1             4    7     1       0.6673737069E-04       4    7    1         0.3700293978E-02      0.9125676277E-02

    ------------------------------------------------
       NWT REQUIRED            3 OUTER ITERATIONS 
       AND A TOTAL OF          5 INNER ITERATIONS.
    ------------------------------------------------

 NO OUTPUT CONTROL FOR STRESS PERIOD   15   TIME STEP    9
 
 SOLVING FOR HEAD 
                                                   Max.-Head-Change                         Max.-Flux-Residual
  Residual-Control   Outer-Iter.   Inner-Iter.     Column Row Layer    Maximum-Head-Change  Column Row Layer    Maximum-Flux-Residual          L2-NORM 
          0                 1           2             4    7     1       0.9978152223E-02       4    7    1         0.5234918352E+00      0.1293595386E+01
          0                 2           2             4    7     1      -0.9706042481E-03       4    7    1        -0.5234932705E-01      0.1293593632E+00
          0                 3           1             4    7     1       0.6609453212E-04       4    7    1         0.3664453123E-02      0.9055124146E-02

    ------------------------------------------------
       NWT REQUIRED            3 OUTER ITERATIONS 
       AND A TOTAL OF          5 INNER ITERATIONS.
    ------------------------------------------------

 NO OUTPUT CONTROL FOR STRESS PERIOD   15   TIME STEP   10
 
 SOLVING FOR HEAD 
                                                   Max.-Head-Change                         Max.-Flux-Residual
  Residual-Control   Outer-Iter.   Inner-Iter.     Column Row Layer    Maximum-Head-Change  Column Row Layer    Maximum-Flux-Residual          L2-NORM 
          0                 1           2             4    7     1       0.9882628316E-02       4    7    1         0.5184526873E+00      0.1283649850E+01
          0                 2           2             4    7     1      -0.9613123273E-03       4    7    1        -0.5184540893E-01      0.1283648074E+00
          0                 3           1             4    7     1       0.6546178707E-04       4    7    1         0.3629178861E-02      0.8985544896E-02

    ------------------------------------------------
       NWT REQUIRED            3 OUTER ITERATIONS 
       AND A TOTAL OF          5 INNER ITERATIONS.
    ------------------------------------------------

 NO OUTPUT CONTROL FOR STRESS PERIOD   15   TIME STEP   11
 
 SOLVING FOR HEAD 
                                                   Max.-Head-Change                         Max.-Flux-Residual
  Residual-Control   Outer-Iter.   Inner-Iter.     Column Row Layer    Maximum-Head-Change  Column Row Layer    Maximum-Flux-Residual          L2-NORM 
          0                 1           2             4    7     1       0.9788455813E-02       4    7    1         0.5134852006E+00      0.1273828399E+01
          0                 2           2             4    7     1      -0.9521518625E-03       4    7    1        -0.5134865700E-01      0.1273825809E+00
          0                 3           1             4    7     1       0.6483799384E-04       4    7    1         0.3594406238E-02      0.8916757894E-02

    ------------------------------------------------
       NWT REQUIRED            3 OUTER ITERATIONS 
       AND A TOTAL OF          5 INNER ITERATIONS.
    ------------------------------------------------

 NO OUTPUT CONTROL FOR STRESS PERIOD   15   TIME STEP   12
 
 SOLVING FOR HEAD 
                                                   Max.-Head-Change                         Max.-Flux-Residual
  Residual-Control   Outer-Iter.   Inner-Iter.     Column Row Layer    Maximum-Head-Change  Column Row Layer    Maximum-Flux-Residual          L2-NORM 
          0                 1           2             4    7     1       0.9695736017E-02       4    7    1         0.5085951270E+00      0.1264130755E+01
          0                 2           2             4    7     1      -0.9431327083E-03       4    7    1        -0.5085964649E-01      0.1264127972E+00
          0                 3           1             4    7     1       0.6422382350E-04       4    7    1         0.3560175533E-02      0.8848870465E-02

    ------------------------------------------------
       NWT REQUIRED            3 OUTER ITERATIONS 
       AND A TOTAL OF          5 INNER ITERATIONS.
    ------------------------------------------------

 NO OUTPUT CONTROL FOR STRESS PERIOD   15   TIME STEP   13
 
 SOLVING FOR HEAD 
                                                   Max.-Head-Change                         Max.-Flux-Residual
  Residual-Control   Outer-Iter.   Inner-Iter.     Column Row Layer    Maximum-Head-Change  Column Row Layer    Maximum-Flux-Residual          L2-NORM 
          0                 1           2             4    7     1       0.9604438753E-02       4    7    1         0.5037803740E+00      0.1254560368E+01
          0                 2           2             4    7     1      -0.9342519286E-03       4    7    1        -0.5037816812E-01      0.1254557126E+00
          0                 3           1             4    7     1       0.6361907549E-04       4    7    1         0.3526472059E-02      0.8781867538E-02

    ------------------------------------------------
       NWT REQUIRED            3 OUTER ITERATIONS 
       AND A TOTAL OF          5 INNER ITERATIONS.
    ------------------------------------------------

 NO OUTPUT CONTROL FOR STRESS PERIOD   15   TIME STEP   14
 
 SOLVING FOR HEAD 
                                                   Max.-Head-Change                         Max.-Flux-Residual
  Residual-Control   Outer-Iter.   Inner-Iter.     Column Row Layer    Maximum-Head-Change  Column Row Layer    Maximum-Flux-Residual          L2-NORM 
          0                 1           2             4    7     1       0.9514391408E-02       4    7    1         0.4990320319E+00      0.1245105111E+01
          0                 2           2             4    7     1      -0.9254927333E-03       4    7    1        -0.4990333094E-01      0.1245101631E+00
          0                 3           1             4    7     1       0.6302260748E-04       4    7    1         0.3493233474E-02      0.8715682490E-02

    ------------------------------------------------
       NWT REQUIRED            3 OUTER ITERATIONS 
       AND A TOTAL OF          5 INNER ITERATIONS.
    ------------------------------------------------

 NO OUTPUT CONTROL FOR STRESS PERIOD   15   TIME STEP   15
 
 SOLVING FOR HEAD 
                                                   Max.-Head-Change                         Max.-Flux-Residual
  Residual-Control   Outer-Iter.   Inner-Iter.     Column Row Layer    Maximum-Head-Change  Column Row Layer    Maximum-Flux-Residual          L2-NORM 
          0                 1           2             4    7     1       0.9425570696E-02       4    7    1         0.4943484958E+00      0.1235764730E+01
          0                 2           2             4    7     1      -0.9168528572E-03       4    7    1        -0.4943497443E-01      0.1235761062E+00
          0                 3           1             4    7     1       0.6243426412E-04       4    7    1         0.3460448526E-02      0.8650288348E-02

    ------------------------------------------------
       NWT REQUIRED            3 OUTER ITERATIONS 
       AND A TOTAL OF          5 INNER ITERATIONS.
    ------------------------------------------------

 NO OUTPUT CONTROL FOR STRESS PERIOD   15   TIME STEP   16
 
 SOLVING FOR HEAD 
                                                   Max.-Head-Change                         Max.-Flux-Residual
  Residual-Control   Outer-Iter.   Inner-Iter.     Column Row Layer    Maximum-Head-Change  Column Row Layer    Maximum-Flux-Residual          L2-NORM 
          0                 1           2             4    7     1       0.9338218476E-02       4    7    1         0.4897432500E+00      0.1226545377E+01
          0                 2           2             4    7     1      -0.9083558267E-03       4    7    1        -0.4897444706E-01      0.1226541316E+00
          0                 3           1             4    7     1       0.6185564814E-04       4    7    1         0.3428211619E-02      0.8585735360E-02

    ------------------------------------------------
       NWT REQUIRED            3 OUTER ITERATIONS 
       AND A TOTAL OF          5 INNER ITERATIONS.
    ------------------------------------------------

 NO OUTPUT CONTROL FOR STRESS PERIOD   15   TIME STEP   17
 
 SOLVING FOR HEAD 
                                                   Max.-Head-Change                         Max.-Flux-Residual
  Residual-Control   Outer-Iter.   Inner-Iter.     Column Row Layer    Maximum-Head-Change  Column Row Layer    Maximum-Flux-Residual          L2-NORM 
          0                 1           2             4    7     1       0.9252026457E-02       4    7    1         0.4851994519E+00      0.1217434824E+01
          0                 2           2             4    7     1      -0.8999716530E-03       4    7    1        -0.4852006450E-01      0.1217430341E+00
          0                 3           1             4    7     1       0.6128471742E-04       4    7    1         0.3396404855E-02      0.8521978525E-02

    ------------------------------------------------
       NWT REQUIRED            3 OUTER ITERATIONS 
       AND A TOTAL OF          5 INNER ITERATIONS.
    ------------------------------------------------

 NO OUTPUT CONTROL FOR STRESS PERIOD   15   TIME STEP   18
 
 SOLVING FOR HEAD 
                                                   Max.-Head-Change                         Max.-Flux-Residual
  Residual-Control   Outer-Iter.   Inner-Iter.     Column Row Layer    Maximum-Head-Change  Column Row Layer    Maximum-Flux-Residual          L2-NORM 
          0                 1           2             4    7     1       0.9167110600E-02       4    7    1         0.4807231543E+00      0.1208441799E+01
          0                 2           2             4    7     1      -0.8917116163E-03       4    7    1        -0.4807243209E-01      0.1208437047E+00
          0                 3           1             4    7     1       0.6072223973E-04       4    7    1         0.3365070583E-02      0.8459004561E-02

    ------------------------------------------------
       NWT REQUIRED            3 OUTER ITERATIONS 
       AND A TOTAL OF          5 INNER ITERATIONS.
    ------------------------------------------------

 NO OUTPUT CONTROL FOR STRESS PERIOD   15   TIME STEP   19
 
 SOLVING FOR HEAD 
                                                   Max.-Head-Change                         Max.-Flux-Residual
  Residual-Control   Outer-Iter.   Inner-Iter.     Column Row Layer    Maximum-Head-Change  Column Row Layer    Maximum-Flux-Residual          L2-NORM 
          0                 1           2             4    7     1       0.9083303702E-02       4    7    1         0.4763056776E+00      0.1199553962E+01
          0                 2           2             4    7     1      -0.8835594524E-03       4    7    1        -0.4763068184E-01      0.1199548809E+00
          0                 3           1             4    7     1       0.6016710825E-04       4    7    1         0.3334148094E-02      0.8396777367E-02

    ------------------------------------------------
       NWT REQUIRED            3 OUTER ITERATIONS 
       AND A TOTAL OF          5 INNER ITERATIONS.
    ------------------------------------------------

 NO OUTPUT CONTROL FOR STRESS PERIOD   15   TIME STEP   20
 
 SOLVING FOR HEAD 
                                                   Max.-Head-Change                         Max.-Flux-Residual
  Residual-Control   Outer-Iter.   Inner-Iter.     Column Row Layer    Maximum-Head-Change  Column Row Layer    Maximum-Flux-Residual          L2-NORM 
          0                 1           2             4    7     1       0.9000852544E-02       4    7    1         0.4719603911E+00      0.1190775361E+01
          0                 2           2             4    7     1      -0.8755391658E-03       4    7    1        -0.4719615067E-01      0.1190767930E+00
          0                 3           1             4    7     1       0.5962095698E-04       4    7    1         0.3303730918E-02      0.8335580143E-02

    ------------------------------------------------
       NWT REQUIRED            3 OUTER ITERATIONS 
       AND A TOTAL OF          5 INNER ITERATIONS.
    ------------------------------------------------

 NO OUTPUT CONTROL FOR STRESS PERIOD   15   TIME STEP   21
 
 SOLVING FOR HEAD 
                                                   Max.-Head-Change                         Max.-Flux-Residual
  Residual-Control   Outer-Iter.   Inner-Iter.     Column Row Layer    Maximum-Head-Change  Column Row Layer    Maximum-Flux-Residual          L2-NORM 
          0                 1           2             4    7     1       0.8919454549E-02       4    7    1         0.4676707051E+00      0.1182100931E+01
          0                 2           2             4    7     1      -0.8676213246E-03       4    7    1        -0.4676717965E-01      0.1182095414E+00
          0                 3           1             4    7     1       0.5908178143E-04       4    7    1         0.3273702957E-02      0.8274617886E-02

    ------------------------------------------------
       NWT REQUIRED            3 OUTER ITERATIONS 
       AND A TOTAL OF          5 INNER ITERATIONS.
    ------------------------------------------------

 NO OUTPUT CONTROL FOR STRESS PERIOD   15   TIME STEP   22
 
 SOLVING FOR HEAD 
                                                   Max.-Head-Change                         Max.-Flux-Residual
  Residual-Control   Outer-Iter.   Inner-Iter.     Column Row Layer    Maximum-Head-Change  Column Row Layer    Maximum-Flux-Residual          L2-NORM 
          0                 1           2             4    7     1       0.8839225168E-02       4    7    1         0.4634429703E+00      0.1173534629E+01
          0                 2           2             4    7     1      -0.8598171585E-03       4    7    1        -0.4634440380E-01      0.1173528828E+00
          0                 3           1             4    7     1       0.5855034710E-04       4    7    1         0.3244108660E-02      0.8214648318E-02

    ------------------------------------------------
       NWT REQUIRED            3 OUTER ITERATIONS 
       AND A TOTAL OF          5 INNER ITERATIONS.
    ------------------------------------------------

 NO OUTPUT CONTROL FOR STRESS PERIOD   15   TIME STEP   23
 
 SOLVING FOR HEAD 
                                                   Max.-Head-Change                         Max.-Flux-Residual
  Residual-Control   Outer-Iter.   Inner-Iter.     Column Row Layer    Maximum-Head-Change  Column Row Layer    Maximum-Flux-Residual          L2-NORM 
          0                 1           2             4    7     1       0.8760004828E-02       4    7    1         0.4592684798E+00      0.1165072423E+01
          0                 2           2             4    7     1      -0.8521111448E-03       4    7    1        -0.4592695241E-01      0.1165066449E+00
          0                 3           1             4    7     1       0.5802559666E-04       4    7    1         0.3214887065E-02      0.8155409499E-02

    ------------------------------------------------
       NWT REQUIRED            3 OUTER ITERATIONS 
       AND A TOTAL OF          5 INNER ITERATIONS.
    ------------------------------------------------

 NO OUTPUT CONTROL FOR STRESS PERIOD   15   TIME STEP   24
 
 SOLVING FOR HEAD 
                                                   Max.-Head-Change                         Max.-Flux-Residual
  Residual-Control   Outer-Iter.   Inner-Iter.     Column Row Layer    Maximum-Head-Change  Column Row Layer    Maximum-Flux-Residual          L2-NORM 
          0                 1           2             4    7     1       0.8682042673E-02       4    7    1         0.4551610000E+00      0.1156709726E+01
          0                 2           2             4    7     1      -0.8445275203E-03       4    7    1        -0.4551620220E-01      0.1156703734E+00
          0                 3           1             4    7     1       0.5750918043E-04       4    7    1         0.3186134578E-02      0.8096868585E-02

    ------------------------------------------------
       NWT REQUIRED            3 OUTER ITERATIONS 
       AND A TOTAL OF          5 INNER ITERATIONS.
    ------------------------------------------------

 NO OUTPUT CONTROL FOR STRESS PERIOD   15   TIME STEP   25
 
 SOLVING FOR HEAD 
                                                   Max.-Head-Change                         Max.-Flux-Residual
  Residual-Control   Outer-Iter.   Inner-Iter.     Column Row Layer    Maximum-Head-Change  Column Row Layer    Maximum-Flux-Residual          L2-NORM 
          0                 1           2             4    7     1       0.8605037797E-02       4    7    1         0.4511040615E+00      0.1148439681E+01
          0                 2           2             4    7     1      -0.8370370128E-03       4    7    1        -0.4511050615E-01      0.1148433257E+00
          0                 3           1             4    7     1       0.5699910468E-04       4    7    1         0.3157735845E-02      0.8038980323E-02

    ------------------------------------------------
       NWT REQUIRED            3 OUTER ITERATIONS 
       AND A TOTAL OF          5 INNER ITERATIONS.
    ------------------------------------------------

 NO OUTPUT CONTROL FOR STRESS PERIOD   15   TIME STEP   26
 
 SOLVING FOR HEAD 
                                                   Max.-Head-Change                         Max.-Flux-Residual
  Residual-Control   Outer-Iter.   Inner-Iter.     Column Row Layer    Maximum-Head-Change  Column Row Layer    Maximum-Flux-Residual          L2-NORM 
          0                 1           2             4    7     1       0.8529243330E-02       4    7    1         0.4471114505E+00      0.1140278239E+01
          0                 2           2             4    7     1      -0.8296642466E-03       4    7    1        -0.4471124291E-01      0.1140271751E+00
          0                 3           1             4    7     1       0.5649704695E-04       4    7    1         0.3129787444E-02      0.7981854415E-02

    ------------------------------------------------
       NWT REQUIRED            3 OUTER ITERATIONS 
       AND A TOTAL OF          5 INNER ITERATIONS.
    ------------------------------------------------

 NO OUTPUT CONTROL FOR STRESS PERIOD   15   TIME STEP   27
 
 SOLVING FOR HEAD 
                                                   Max.-Head-Change                         Max.-Flux-Residual
  Residual-Control   Outer-Iter.   Inner-Iter.     Column Row Layer    Maximum-Head-Change  Column Row Layer    Maximum-Flux-Residual          L2-NORM 
          0                 1           2             4    7     1       0.8454359703E-02       4    7    1         0.4431669032E+00      0.1132208813E+01
          0                 2           2             4    7     1      -0.8223800806E-03       4    7    1        -0.4431678610E-01      0.1132202270E+00
          0                 3           1             4    7     1       0.5600102249E-04       4    7    1         0.3102175461E-02      0.7925372629E-02

    ------------------------------------------------
       NWT REQUIRED            3 OUTER ITERATIONS 
       AND A TOTAL OF          5 INNER ITERATIONS.
    ------------------------------------------------

 NO OUTPUT CONTROL FOR STRESS PERIOD   15   TIME STEP   28
 
 SOLVING FOR HEAD 
                                                   Max.-Head-Change                         Max.-Flux-Residual
  Residual-Control   Outer-Iter.   Inner-Iter.     Column Row Layer    Maximum-Head-Change  Column Row Layer    Maximum-Flux-Residual          L2-NORM 
          0                 1           2             4    7     1       0.8380577663E-02       4    7    1         0.4392769287E+00      0.1146188436E+01
          0                 2           2             4    7     1      -0.8152030697E-03       4    7    1        -0.4392778661E-01      0.1186985064E+00
          0                 3           1             4    7     1       0.5551229396E-04       4    7    1         0.3074945506E-02      0.8298269032E-02

    ------------------------------------------------
       NWT REQUIRED            3 OUTER ITERATIONS 
       AND A TOTAL OF          5 INNER ITERATIONS.
    ------------------------------------------------

 NO OUTPUT CONTROL FOR STRESS PERIOD   15   TIME STEP   29
 
 SOLVING FOR HEAD 
                                                   Max.-Head-Change                         Max.-Flux-Residual
  Residual-Control   Outer-Iter.   Inner-Iter.     Column Row Layer    Maximum-Head-Change  Column Row Layer    Maximum-Flux-Residual          L2-NORM 
          0                 1           2             4   13     1       0.1102988111E-01       4   13    1         0.6343853103E+00      0.1607454311E+01
          0                 2           2             4   13     1      -0.1061906531E-02       4   13    1        -0.6279816569E-01      0.1585992650E+00
          0                 3           1             4   13     1       0.7126817375E-04       4   13    1         0.4333367434E-02      0.1090342947E-01

    ------------------------------------------------
       NWT REQUIRED            3 OUTER ITERATIONS 
       AND A TOTAL OF          5 INNER ITERATIONS.
    ------------------------------------------------

 NO OUTPUT CONTROL FOR STRESS PERIOD   15   TIME STEP   30



 STREAM LISTING     PERIOD     15   STEP       30

 LAYER ROW COL. STREAM  RCH.  FLOW INTO     FLOW TO   FLOW OUT OF   OVRLND.     DIRECT     STREAM       STREAM     STREAM     STREAM   STREAMBED  STREAMBED
                SEG.NO.  NO.  STRM. RCH.    AQUIFER    STRM. RCH.    RUNOFF     PRECIP       ET          HEAD       DEPTH      WIDTH   CONDCTNC.   GRADIENT

   1    1    1     1     1    3.6751E+01  2.9262E-01   3.6458E+01  0.000E+00  0.000E+00  0.000E+00  1.09435E+03  1.306E+00  1.510E+01  6.795E-02  1.435E+00
   1    2    2     1     2    3.6458E+01  4.5310E-01   3.6005E+01  0.000E+00  0.000E+00  0.000E+00  1.08936E+03  1.303E+00  1.504E+01  1.053E-01  1.434E+00
   1    3    3     1     3    3.6005E+01  3.8635E-01   3.5618E+01  0.000E+00  0.000E+00  0.000E+00  1.08372E+03  1.300E+00  1.497E+01  8.985E-02  1.433E+00
   1    3    4     1     4    3.5618E+01  3.5572E-01   3.5263E+01  0.000E+00  0.000E+00  0.000E+00  1.07870E+03  1.297E+00  1.492E+01  8.278E-02  1.432E+00
   1    4    5     2     1    3.3263E+01  3.4544E-01   3.2917E+01  0.000E+00  0.000E+00  0.000E+00  1.07336E+03  1.429E+00  1.200E+01  7.800E-02  1.476E+00
   1    5    6     2     2    3.2917E+01  2.6525E-01   3.2652E+01  0.000E+00  0.000E+00  0.000E+00  1.06793E+03  1.421E+00  1.200E+01  6.000E-02  1.474E+00
   1    6    6     2     3    3.2652E+01  2.6484E-01   3.2387E+01  0.000E+00  0.000E+00  0.000E+00  1.06321E+03  1.414E+00  1.200E+01  6.000E-02  1.471E+00
   1    7    6     2     4    3.2387E+01  2.6442E-01   3.2123E+01  0.000E+00  0.000E+00  0.000E+00  1.05848E+03  1.407E+00  1.200E+01  6.000E-02  1.469E+00
   1    8    6     2     5    3.2123E+01  2.6401E-01   3.1859E+01  0.000E+00  0.000E+00  0.000E+00  1.05376E+03  1.400E+00  1.200E+01  6.000E-02  1.467E+00
   1    3    5     3     1    2.0000E+00  2.8252E-01   1.7175E+00  0.000E+00  0.000E+00  0.000E+00  1.07555E+03  1.909E+00  9.636E+00  7.227E-02  1.955E+00
   1    3    6     3     2    1.7175E+00  2.4905E-01   1.4684E+00  0.000E+00  0.000E+00  0.000E+00  1.07264E+03  1.727E+00  8.909E+00  6.682E-02  1.864E+00
   1    3    7     3     3    1.4684E+00  1.9718E-01   1.2712E+00  0.000E+00  0.000E+00  0.000E+00  1.06987E+03  1.555E+00  8.218E+00  5.547E-02  1.777E+00
   1    4    8     3     4    1.2712E+00  2.2567E-01   1.0456E+00  0.000E+00  0.000E+00  0.000E+00  1.06682E+03  1.364E+00  7.455E+00  6.709E-02  1.682E+00
   1    5    8     3     5    1.0456E+00  1.5790E-01   8.8768E-01  0.000E+00  0.000E+00  0.000E+00  1.06362E+03  1.164E+00  6.655E+00  4.991E-02  1.582E+00
   1    6    8     3     6    8.8768E-01  5.5980E-02   8.3170E-01  0.000E+00  0.000E+00  0.000E+00  1.06158E+03  1.036E+00  6.145E+00  1.844E-02  1.518E+00
   1    5   10     4     1    1.0000E+01  9.0919E-02   9.9091E+00  0.000E+00  0.000E+00  0.000E+00  1.07836E+03  6.368E-01  1.000E+01  2.500E-02  1.212E+00
   1    5    9     4     2    9.9091E+00  1.8158E-01   9.7275E+00  0.000E+00  0.000E+00  0.000E+00  1.07154E+03  6.315E-01  1.000E+01  5.000E-02  1.211E+00
   1    6    8     4     3    9.7275E+00  1.2689E-01   9.6006E+00  0.000E+00  0.000E+00  0.000E+00  1.06381E+03  6.256E-01  1.000E+01  3.500E-02  1.209E+00
   1    6    8     5     1    1.0432E+01  2.2686E-01   1.0205E+01  0.000E+00  0.000E+00  0.000E+00  1.05868E+03  6.790E-01  1.542E+01  6.166E-02  1.226E+00
   1    7    7     5     2    1.0205E+01  2.7894E-01   9.9265E+00  0.000E+00  0.000E+00  0.000E+00  1.05417E+03  6.732E-01  1.519E+01  7.594E-02  1.224E+00
   1    8    7     5     3    9.9265E+00  1.9221E-01   9.7343E+00  0.000E+00  0.000E+00  0.000E+00  1.04992E+03  6.676E-01  1.497E+01  5.241E-02  1.223E+00
   1    8    6     5     4    9.7343E+00  1.3577E-01   9.5985E+00  0.000E+00  0.000E+00  0.000E+00  1.04691E+03  6.637E-01  1.482E+01  3.706E-02  1.221E+00
   1    9    6     6     1    4.1457E+01  2.7904E-01   4.1178E+01  0.000E+00  0.000E+00  0.000E+00  1.04438E+03  1.651E+00  1.200E+01  6.000E-02  1.550E+00
   1   10    7     6     2    4.1178E+01  2.7864E-01   4.0900E+01  0.000E+00  0.000E+00  0.000E+00  1.03983E+03  1.644E+00  1.200E+01  6.000E-02  1.548E+00
   1   11    7     6     3    4.0900E+01  2.7823E-01   4.0621E+01  0.000E+00  0.000E+00  0.000E+00  1.03527E+03  1.637E+00  1.200E+01  6.000E-02  1.546E+00
   1   12    7     6     4    4.0621E+01  2.7783E-01   4.0344E+01  0.000E+00  0.000E+00  0.000E+00  1.03072E+03  1.631E+00  1.200E+01  6.000E-02  1.544E+00
   1   13    7     6     5    4.0344E+01  1.7876E-02   4.0326E+01  0.000E+00  0.000E+00  0.000E+00  1.02754E+03  1.627E+00  1.200E+01  2.400E-02  2.483E-01
   1   14    9     7     1    1.5000E+02  1.3702E+00   1.4863E+02  0.000E+00  0.000E+00  0.000E+00  1.03987E+03  2.288E+00  5.529E+01  5.593E-01  8.166E-01
   1   13    8     7     2    1.4863E+02  1.9272E+00   1.4670E+02  0.000E+00  0.000E+00  0.000E+00  1.03478E+03  2.279E+00  5.525E+01  6.148E-01  1.045E+00
   1   13    7     7     3    1.4670E+02  1.6180E+00   1.4508E+02  0.000E+00  0.000E+00  0.000E+00  1.02969E+03  2.269E+00  5.521E+01  5.584E-01  9.658E-01
   1   13    6     8     1    1.8541E+02  1.1426E+00   1.8427E+02  0.000E+00  0.000E+00  0.000E+00  1.02492E+03  3.046E+00  4.417E+01  4.501E-01  8.461E-01
   1   13    5     8     2    1.8427E+02  3.5676E-01   1.8391E+02  0.000E+00  0.000E+00  0.000E+00  1.01867E+03  3.042E+00  4.410E+01  4.494E-01  2.646E-01
   1   13    4     8     3    1.8391E+02 -1.5218E+00   1.8543E+02  0.000E+00  0.000E+00  0.000E+00  1.01242E+03  3.045E+00  4.416E+01  4.500E+00 -1.127E-01
   1   13    3     8     4    1.8543E+02 -2.9788E+00   1.8841E+02  0.000E+00  0.000E+00  0.000E+00  1.00618E+03  3.059E+00  4.436E+01  4.520E+00 -2.197E-01
   1   13    2     8     5    1.8841E+02 -1.9878E+00   1.9040E+02  0.000E+00  0.000E+00  0.000E+00  9.99949E+02  3.074E+00  4.458E+01  4.543E+00 -1.459E-01
   1   13    1     8     6    1.9040E+02 -1.6541E+00   1.9205E+02  0.000E+00  0.000E+00  0.000E+00  9.94960E+02  3.085E+00  4.474E+01  2.735E+00 -2.016E-01
   1    8    6     9     1    0.0000E+00  0.0000E+00   0.0000E+00  0.000E+00  0.000E+00  0.000E+00  1.07875E+03  0.000E+00  4.000E+00  0.000E+00  1.000E+00
   1    8    5     9     2    0.0000E+00  0.0000E+00   0.0000E+00  0.000E+00  0.000E+00  0.000E+00  1.07825E+03  0.000E+00  4.000E+00  0.000E+00  1.000E+00





UNSATURATED ZONE PACKAGE VOLUMETRIC BUDGET FOR  TIME STEP    30 STRESS PERIOD   15
  ------------------------------------------------------------------------------



     CUMULATIVE VOLUMES      L**3       RATES FOR THIS TIME STEP      L**3/T
     ------------------                 ------------------------

           IN:                                      IN:
           ---                                      ---
        INFILTRATION =   646035140.2551          INFILTRATION =           4.4075

          OUT:                                     OUT:
          ----                                     ----
              UZF ET =   502003571.7321                UZF ET =           0.7250
        UZF RECHARGE =       73224.0000          UZF RECHARGE =       0.0000E+00

            IN - OUT =   143958344.5231              IN - OUT =           3.6825

          STORAGE:                                 STORAGE:
          --------                                 --------
      STORAGE CHANGE =   143958336.0551        STORAGE CHANGE =           3.6825

 PERCENT DISCREPANCY IS DIFFERENCE BETWEEN IN-OUT MINUS CHANGE IN STORAGE
 DIVIDED BY THE AVERAGE OF IN AND OUT TIMES 100

 PERCENT DISCREPANCY =           0.00     PERCENT DISCREPANCY =           0.00






1
  VOLUMETRIC BUDGET FOR AGRICULTURAL FIELDS AT  END OF TIME STEP   30, STRESS PERIOD  15
  ------------------------------------------------------------------------------

     CUMULATIVE VOLUMES      L**3       RATES FOR THIS TIME STEP      L**3/T
     ------------------                 ------------------------

           IN:                                      IN:
           ---                                      ---
               AG WELLS  =   266612848.0000                 AG WELLS  =           0.0000
      DIVERSION SEGMENTS =   217175360.0000        DIVERSION SEGMENTS =           0.0000
           GW IRRIGATION =           0.0000             GW IRRIGATION =           0.0000
           SW IRRIGATION =           0.0000             SW IRRIGATION =           0.0000
        SYSTEM LOSSES GW =           0.0000          SYSTEM LOSSES GW =           0.0000
        SYSTEM LOSSES SW =           0.0000          SYSTEM LOSSES SW =           0.0000

                TOTAL IN =   483788224.0000                  TOTAL IN =           0.0000

          OUT:                                     OUT:
          ----                                     ----
               AG WELLS  =           0.0000                 AG WELLS  =           0.0000
      DIVERSION SEGMENTS =           0.0000        DIVERSION SEGMENTS =           0.0000
           GW IRRIGATION =   266612848.0000             GW IRRIGATION =           0.0000
           SW IRRIGATION =   217179728.0000             SW IRRIGATION =           0.0000
        SYSTEM LOSSES GW =           0.0000          SYSTEM LOSSES GW =           0.0000
        SYSTEM LOSSES SW =           0.0000          SYSTEM LOSSES SW =           0.0000

               TOTAL OUT =   483792576.0000                 TOTAL OUT =           0.0000

                IN - OUT =       -4352.0000                  IN - OUT =           0.0000

     PERCENT DISCREPANCY =          -0.00         PERCENT DISCREPANCY =           0.00



1
  VOLUMETRIC BUDGET FOR ENTIRE MODEL AT END OF TIME STEP   30, STRESS PERIOD  15
  ------------------------------------------------------------------------------

     CUMULATIVE VOLUMES      L**3       RATES FOR THIS TIME STEP      L**3/T
     ------------------                 ------------------------

           IN:                                      IN:
           ---                                      ---
             STORAGE     =   409859360.0000               STORAGE     =           2.5438
       CONSTANT HEAD     =           0.0000         CONSTANT HEAD     =           0.0000
     HEAD DEP BOUNDS     =    10627463.0000       HEAD DEP BOUNDS     =           0.2881
      STREAM LEAKAGE     =   429641760.0000        STREAM LEAKAGE     =          12.8396
        UZF RECHARGE     =       73223.9531          UZF RECHARGE     =           0.0000
               GW ET     =           0.0000                 GW ET     =           0.0000
     SURFACE LEAKAGE     =           0.0000       SURFACE LEAKAGE     =           0.0000
           AG WELLS      =           0.0000             AG WELLS      =           0.0000

                TOTAL IN =   850201792.0000                  TOTAL IN =          15.6715

          OUT:                                     OUT:
          ----                                     ----
             STORAGE     =   192531360.0000               STORAGE     =           7.2427
       CONSTANT HEAD     =           0.0000         CONSTANT HEAD     =           0.0000
     HEAD DEP BOUNDS     =    10624426.0000       HEAD DEP BOUNDS     =           0.2875
      STREAM LEAKAGE     =   380437312.0000        STREAM LEAKAGE     =           8.1426
        UZF RECHARGE     =           0.0000          UZF RECHARGE     =           0.0000
               GW ET     =           0.0000                 GW ET     =           0.0000
     SURFACE LEAKAGE     =           0.0000       SURFACE LEAKAGE     =           0.0000
           AG WELLS      =   266612848.0000             AG WELLS      =           0.0000

               TOTAL OUT =   850205952.0000                 TOTAL OUT =          15.6728

                IN - OUT =       -4160.0000                  IN - OUT =      -1.3351E-03

     PERCENT DISCREPANCY =          -0.00         PERCENT DISCREPANCY =          -0.01






         TIME SUMMARY AT END OF TIME STEP   30 IN STRESS PERIOD   15
                    SECONDS     MINUTES      HOURS       DAYS        YEARS
                    -----------------------------------------------------------
   TIME STEP LENGTH  87667.      1461.1      24.352      1.0147     2.77799E-03
 STRESS PERIOD TIME 2.63000E+06  43833.      730.56      30.440     8.33397E-02
         TOTAL TIME 3.69063E+07 6.15106E+05  10252.      427.16      1.1695    
1
1
                            STRESS PERIOD NO.   16, LENGTH =   2630000.    
                            -----------------------------------------------

                              NUMBER OF TIME STEPS =    30

                               MULTIPLIER FOR DELT =     1.000

                            INITIAL TIME STEP SIZE =   87666.66    

 REUSING NON-PARAMETER GHB CELLS FROM LAST STRESS PERIOD

      2 GHB CELLS

 REUSING STREAM SEGMENT DATA FROM LAST STRESS PERIOD



            AREAL INFILTRATION RATE
 READING ON UNIT   19 WITH FORMAT: (10F4.0)            

            1           2           3           4           5           6           7           8           9          10
 ........................................................................................................................
   1   1.2000E-09   0.000       0.000       0.000       0.000       0.000       0.000       0.000       0.000       0.000    
   2   2.1000E-09  2.0000E-09  8.0000E-10  8.5000E-09   0.000       0.000       0.000       0.000       0.000       0.000    
   3   5.0000E-10  1.1000E-09  8.8000E-09  5.5000E-09   0.000       0.000       0.000       0.000       0.000       0.000    
   4   8.5000E-09  1.1000E-09  1.1000E-09  1.1000E-09  2.0000E-09   0.000       0.000       0.000       0.000       0.000    
   5   8.5000E-09  1.1000E-09  1.1000E-09  1.1000E-09  1.1000E-09   0.000       0.000       0.000       0.000       0.000    
   6   8.5000E-09  5.2000E-09  2.1000E-09  1.1000E-09  1.5000E-09   0.000       0.000       0.000       0.000       0.000    
   7   8.5000E-09  5.2000E-09  2.1000E-09  1.2000E-09  2.0000E-09   0.000       0.000       0.000       0.000       0.000    
   8   5.0000E-10  5.2000E-09  2.1000E-09  1.2000E-09  5.0000E-09   0.000       0.000       0.000       0.000       0.000    
   9   5.0000E-10  5.2000E-09  2.1000E-09  1.2000E-09  5.0000E-09   0.000       0.000       0.000       0.000       0.000    
  10   5.0000E-10  5.2000E-09  2.1000E-09  1.2000E-09  5.8000E-09   0.000       0.000       0.000       0.000       0.000    
  11   1.0000E-10  1.1000E-09  1.1000E-09  1.2000E-09  5.0000E-09   0.000       0.000       0.000       0.000       0.000    
  12   1.1000E-09  1.1000E-09  1.1000E-09  1.1000E-09  2.0000E-09   0.000       0.000       0.000       0.000       0.000    
  13   1.1000E-09  2.2000E-09  2.2000E-09  2.1000E-09  1.0000E-09   0.000       0.000       0.000       0.000       0.000    
  14   2.0000E-10  5.5000E-09  5.5000E-09  5.2000E-09  1.0000E-09   0.000       0.000       0.000       0.000       0.000    
  15    0.000      8.8000E-09  8.8000E-09   0.000       0.000       0.000       0.000       0.000       0.000       0.000    

                  ET RATE =  5.000000E-10

 USING ET EXTINCTION DEPTH FROM PREVIOUS STRESS PERIOD. CURRENT PERIOD IS:      16

 USING EXTINCTION WATER CONTENT FROM PREVIOUS STRESS PERIOD. CURRENT PERIOD IS:      16

 USING AIR ENTRY PRESSURE FROM PREVIOUS STRESS PERIOD. CURRENT PERIOD IS:      16

 USING ROOT PRESSURE HEAD FROM PREVIOUS STRESS PERIOD. CURRENT PERIOD IS:      16

 USING ROOT ACTIVITY FROM PREVIOUS STRESS PERIOD. CURRENT PERIOD IS:      16

 PROCESSING AG STRESS PERIOD DATA

 READING AG STRESS PERIOD DATA

 READING IRRIGATION SEGMENT

 READING IRRIGATION WELL

 READING SUPPLEMENTAL WELL

 END PROCESSING AG STRESS PERIOD DATA OPTIONS
 
 SOLVING FOR HEAD 
                                                   Max.-Head-Change                         Max.-Flux-Residual
  Residual-Control   Outer-Iter.   Inner-Iter.     Column Row Layer    Maximum-Head-Change  Column Row Layer    Maximum-Flux-Residual          L2-NORM 
          0                 1           2             4   13     1       0.9972360086E-02       4   13    1         0.5732996988E+00      0.1543936417E+01
          0                 2           2             4   13     1      -0.9600624534E-03       4   13    1        -0.5674920383E-01      0.1525038897E+00
          0                 3           1             4   13     1       0.6444731100E-04       4   13    1         0.3916804888E-02      0.1050158882E-01

    ------------------------------------------------
       NWT REQUIRED            3 OUTER ITERATIONS 
       AND A TOTAL OF          5 INNER ITERATIONS.
    ------------------------------------------------

 NO OUTPUT CONTROL FOR STRESS PERIOD   16   TIME STEP    1
 
 SOLVING FOR HEAD 
                                                   Max.-Head-Change                         Max.-Flux-Residual
  Residual-Control   Outer-Iter.   Inner-Iter.     Column Row Layer    Maximum-Head-Change  Column Row Layer    Maximum-Flux-Residual          L2-NORM 
          0                 1           2             4   13     1       0.9020594357E-02       4   13    1         0.5183398535E+00      0.1487619561E+01
          0                 2           2             4   13     1      -0.8684223516E-03       4   13    1        -0.5130800990E-01      0.1471024408E+00
          0                 3           1             4   13     1       0.5829520254E-04       4   13    1         0.3541208740E-02      0.1014489868E-01

    ------------------------------------------------
       NWT REQUIRED            3 OUTER ITERATIONS 
       AND A TOTAL OF          5 INNER ITERATIONS.
    ------------------------------------------------

 NO OUTPUT CONTROL FOR STRESS PERIOD   16   TIME STEP    2
 
 SOLVING FOR HEAD 
                                                   Max.-Head-Change                         Max.-Flux-Residual
  Residual-Control   Outer-Iter.   Inner-Iter.     Column Row Layer    Maximum-Head-Change  Column Row Layer    Maximum-Flux-Residual          L2-NORM 
          0                 1           2             2   13     1       0.8301732147E-02       4   13    1         0.4688660482E+00      0.1437665472E+01
          0                 2           2             4    7     1      -0.7876704850E-03       4   13    1        -0.4640956767E-01      0.1423111043E+00
          0                 3           1             4    7     1       0.5363742723E-04       4   13    1         0.3203215801E-02      0.9827847953E-02

    ------------------------------------------------
       NWT REQUIRED            3 OUTER ITERATIONS 
       AND A TOTAL OF          5 INNER ITERATIONS.
    ------------------------------------------------

 NO OUTPUT CONTROL FOR STRESS PERIOD   16   TIME STEP    3
 
 SOLVING FOR HEAD 
                                                   Max.-Head-Change                         Max.-Flux-Residual
  Residual-Control   Outer-Iter.   Inner-Iter.     Column Row Layer    Maximum-Head-Change  Column Row Layer    Maximum-Flux-Residual          L2-NORM 
          0                 1           2             4    7     1       0.8029529948E-02       2   13    1         0.4325768428E+00      0.1393316603E+01
          0                 2           2             4    7     1      -0.7810555509E-03       4    7    1        -0.4207326861E-01      0.1380578834E+00
          0                 3           1             4    7     1       0.5318697480E-04       4    7    1         0.2945129281E-02      0.9546963108E-02

    ------------------------------------------------
       NWT REQUIRED            3 OUTER ITERATIONS 
       AND A TOTAL OF          5 INNER ITERATIONS.
    ------------------------------------------------

 NO OUTPUT CONTROL FOR STRESS PERIOD   16   TIME STEP    4
 
 SOLVING FOR HEAD 
                                                   Max.-Head-Change                         Max.-Flux-Residual
  Residual-Control   Outer-Iter.   Inner-Iter.     Column Row Layer    Maximum-Head-Change  Column Row Layer    Maximum-Flux-Residual          L2-NORM 
          0                 1           2             4    7     1       0.7962742261E-02       4    7    1         0.4172059398E+00      0.1353896870E+01
          0                 2           2             4    7     1      -0.7745589036E-03       4    7    1        -0.4172067589E-01      0.1342763287E+00
          0                 3           1             4    7     1       0.5274457802E-04       4    7    1         0.2920447814E-02      0.9297134439E-02

    ------------------------------------------------
       NWT REQUIRED            3 OUTER ITERATIONS 
       AND A TOTAL OF          5 INNER ITERATIONS.
    ------------------------------------------------

 NO OUTPUT CONTROL FOR STRESS PERIOD   16   TIME STEP    5
 
 SOLVING FOR HEAD 
                                                   Max.-Head-Change                         Max.-Flux-Residual
  Residual-Control   Outer-Iter.   Inner-Iter.     Column Row Layer    Maximum-Head-Change  Column Row Layer    Maximum-Flux-Residual          L2-NORM 
          0                 1           2             4    7     1       0.7896999631E-02       4    7    1         0.4137357315E+00      0.1318806576E+01
          0                 2           2             4    7     1      -0.7681639123E-03       4    7    1        -0.4137365330E-01      0.1309087492E+00
          0                 3           1             4    7     1       0.5230910346E-04       4    7    1         0.2896156238E-02      0.9074194966E-02

    ------------------------------------------------
       NWT REQUIRED            3 OUTER ITERATIONS 
       AND A TOTAL OF          5 INNER ITERATIONS.
    ------------------------------------------------

 NO OUTPUT CONTROL FOR STRESS PERIOD   16   TIME STEP    6
 
 SOLVING FOR HEAD 
                                                   Max.-Head-Change                         Max.-Flux-Residual
  Residual-Control   Outer-Iter.   Inner-Iter.     Column Row Layer    Maximum-Head-Change  Column Row Layer    Maximum-Flux-Residual          L2-NORM 
          0                 1           2             4    7     1       0.7832132515E-02       4    7    1         0.4103123593E+00      0.1287492372E+01
          0                 2           2             4    7     1      -0.7618540853E-03       4    7    1        -0.4103131438E-01      0.1279033702E+00
          0                 3           1             4    7     1       0.5187942787E-04       4    7    1         0.2872192509E-02      0.8876108386E-02

    ------------------------------------------------
       NWT REQUIRED            3 OUTER ITERATIONS 
       AND A TOTAL OF          5 INNER ITERATIONS.
    ------------------------------------------------

 NO OUTPUT CONTROL FOR STRESS PERIOD   16   TIME STEP    7
 
 SOLVING FOR HEAD 
                                                   Max.-Head-Change                         Max.-Flux-Residual
  Residual-Control   Outer-Iter.   Inner-Iter.     Column Row Layer    Maximum-Head-Change  Column Row Layer    Maximum-Flux-Residual          L2-NORM 
          0                 1           2             4    7     1       0.7768388044E-02       4    7    1         0.4069490780E+00      0.1259478995E+01
          0                 2           2             4    7     1      -0.7556534618E-03       4    7    1        -0.4069498458E-01      0.1252108139E+00
          0                 3           1             4    7     1       0.5145718832E-04       4    7    1         0.2848649415E-02      0.8697420429E-02

    ------------------------------------------------
       NWT REQUIRED            3 OUTER ITERATIONS 
       AND A TOTAL OF          5 INNER ITERATIONS.
    ------------------------------------------------

 NO OUTPUT CONTROL FOR STRESS PERIOD   16   TIME STEP    8
 
 SOLVING FOR HEAD 
                                                   Max.-Head-Change                         Max.-Flux-Residual
  Residual-Control   Outer-Iter.   Inner-Iter.     Column Row Layer    Maximum-Head-Change  Column Row Layer    Maximum-Flux-Residual          L2-NORM 
          0                 1           2             4    7     1       0.7705598817E-02       4    7    1         0.4036366556E+00      0.1234346696E+01
          0                 2           2             4    7     1      -0.7495457589E-03       4    7    1        -0.4036374075E-01      0.1227938721E+00
          0                 3           1             4    7     1       0.5104127729E-04       4    7    1         0.2825462372E-02      0.8544836030E-02

    ------------------------------------------------
       NWT REQUIRED            3 OUTER ITERATIONS 
       AND A TOTAL OF          5 INNER ITERATIONS.
    ------------------------------------------------

 NO OUTPUT CONTROL FOR STRESS PERIOD   16   TIME STEP    9
 
 SOLVING FOR HEAD 
                                                   Max.-Head-Change                         Max.-Flux-Residual
  Residual-Control   Outer-Iter.   Inner-Iter.     Column Row Layer    Maximum-Head-Change  Column Row Layer    Maximum-Flux-Residual          L2-NORM 
          0                 1           2             4    7     1       0.7643600777E-02       4    7    1         0.4003664125E+00      0.1211727334E+01
          0                 2           2             4    7     1      -0.7435150169E-03       4    7    1        -0.4003671487E-01      0.1206153665E+00
          0                 3           1             4    7     1       0.5063060621E-04       4    7    1         0.2802570561E-02      0.8391751910E-02

    ------------------------------------------------
       NWT REQUIRED            3 OUTER ITERATIONS 
       AND A TOTAL OF          5 INNER ITERATIONS.
    ------------------------------------------------

 NO OUTPUT CONTROL FOR STRESS PERIOD   16   TIME STEP   10
 
 SOLVING FOR HEAD 
                                                   Max.-Head-Change                         Max.-Flux-Residual
  Residual-Control   Outer-Iter.   Inner-Iter.     Column Row Layer    Maximum-Head-Change  Column Row Layer    Maximum-Flux-Residual          L2-NORM 
          0                 1           2             4    7     1       0.7582647293E-02       4    7    1         0.3971518886E+00      0.1191289412E+01
          0                 2           2             4    7     1      -0.7375858823E-03       4    7    1        -0.3971526096E-01      0.1186441902E+00
          0                 3           1             4    7     1       0.5022685415E-04       4    7    1         0.2780068778E-02      0.8260779907E-02

    ------------------------------------------------
       NWT REQUIRED            3 OUTER ITERATIONS 
       AND A TOTAL OF          5 INNER ITERATIONS.
    ------------------------------------------------

 NO OUTPUT CONTROL FOR STRESS PERIOD   16   TIME STEP   11
 
 SOLVING FOR HEAD 
                                                   Max.-Head-Change                         Max.-Flux-Residual
  Residual-Control   Outer-Iter.   Inner-Iter.     Column Row Layer    Maximum-Head-Change  Column Row Layer    Maximum-Flux-Residual          L2-NORM 
          0                 1           2             4    7     1       0.7522569173E-02       4    7    1         0.3939841746E+00      0.1172750437E+01
          0                 2           2             4    7     1      -0.7317418984E-03       4    7    1        -0.3939848811E-01      0.1168539337E+00
          0                 3           1             4    7     1       0.4982890106E-04       4    7    1         0.2757894698E-02      0.8141060885E-02

    ------------------------------------------------
       NWT REQUIRED            3 OUTER ITERATIONS 
       AND A TOTAL OF          5 INNER ITERATIONS.
    ------------------------------------------------

 NO OUTPUT CONTROL FOR STRESS PERIOD   16   TIME STEP   12
 
 SOLVING FOR HEAD 
                                                   Max.-Head-Change                         Max.-Flux-Residual
  Residual-Control   Outer-Iter.   Inner-Iter.     Column Row Layer    Maximum-Head-Change  Column Row Layer    Maximum-Flux-Residual          L2-NORM 
          0                 1           2             4    7     1       0.7463346744E-02       4    7    1         0.3908618469E+00      0.1155871241E+01
          0                 2           2             4    7     1      -0.7259811494E-03       4    7    1        -0.3908625390E-01      0.1152217808E+00
          0                 3           1             4    7     1       0.4943661570E-04       4    7    1         0.2736038304E-02      0.8032120847E-02

    ------------------------------------------------
       NWT REQUIRED            3 OUTER ITERATIONS 
       AND A TOTAL OF          5 INNER ITERATIONS.
    ------------------------------------------------

 NO OUTPUT CONTROL FOR STRESS PERIOD   16   TIME STEP   13
 
 SOLVING FOR HEAD 
                                                   Max.-Head-Change                         Max.-Flux-Residual
  Residual-Control   Outer-Iter.   Inner-Iter.     Column Row Layer    Maximum-Head-Change  Column Row Layer    Maximum-Flux-Residual          L2-NORM 
          0                 1           2             4    7     1       0.7405087360E-02       4    7    1         0.3877912347E+00      0.1140413075E+01
          0                 2           2             4    7     1      -0.7203140797E-03       4    7    1        -0.3877919130E-01      0.1137128507E+00
          0                 3           1             4    7     1       0.4905070952E-04       4    7    1         0.2714543927E-02      0.7930757984E-02

    ------------------------------------------------
       NWT REQUIRED            3 OUTER ITERATIONS 
       AND A TOTAL OF          5 INNER ITERATIONS.
    ------------------------------------------------

 NO OUTPUT CONTROL FOR STRESS PERIOD   16   TIME STEP   14
 
 SOLVING FOR HEAD 
                                                   Max.-Head-Change                         Max.-Flux-Residual
  Residual-Control   Outer-Iter.   Inner-Iter.     Column Row Layer    Maximum-Head-Change  Column Row Layer    Maximum-Flux-Residual          L2-NORM 
          0                 1           2             4    7     1       0.7347497938E-02       4    7    1         0.3847558563E+00      0.1128535317E+01
          0                 2           2             4    7     1      -0.7147121791E-03       4    7    1        -0.3847565211E-01      0.1136636929E+00
          0                 3           1             3   13     1       0.5019887585E-04       3   13    1         0.2875858059E-02      0.8303725671E-02

    ------------------------------------------------
       NWT REQUIRED            3 OUTER ITERATIONS 
       AND A TOTAL OF          5 INNER ITERATIONS.
    ------------------------------------------------

 NO OUTPUT CONTROL FOR STRESS PERIOD   16   TIME STEP   15
 
 SOLVING FOR HEAD 
                                                   Max.-Head-Change                         Max.-Flux-Residual
  Residual-Control   Outer-Iter.   Inner-Iter.     Column Row Layer    Maximum-Head-Change  Column Row Layer    Maximum-Flux-Residual          L2-NORM 
          0                 1           2             4    7     1       0.7290697364E-02       4    7    1         0.3817625637E+00      0.1118541889E+01
          0                 2           2             4    7     1      -0.7091870130E-03       4    7    1        -0.3817632155E-01      0.1127843734E+00
          0                 3           1             3   13     1       0.5267034788E-04       3   13    1         0.3019890988E-02      0.8283336829E-02

    ------------------------------------------------
       NWT REQUIRED            3 OUTER ITERATIONS 
       AND A TOTAL OF          5 INNER ITERATIONS.
    ------------------------------------------------

 NO OUTPUT CONTROL FOR STRESS PERIOD   16   TIME STEP   16
 
 SOLVING FOR HEAD 
                                                   Max.-Head-Change                         Max.-Flux-Residual
  Residual-Control   Outer-Iter.   Inner-Iter.     Column Row Layer    Maximum-Head-Change  Column Row Layer    Maximum-Flux-Residual          L2-NORM 
          0                 1           2             4    7     1       0.7234800936E-02       4    7    1         0.3788175213E+00      0.1105043515E+01
          0                 2           2             4    7     1      -0.7037497957E-03       4    7    1        -0.3788181601E-01      0.1112429210E+00
          0                 3           1             4    7     1       0.4792274281E-04       3   13    1         0.2687948247E-02      0.8099598073E-02

    ------------------------------------------------
       NWT REQUIRED            3 OUTER ITERATIONS 
       AND A TOTAL OF          5 INNER ITERATIONS.
    ------------------------------------------------

 NO OUTPUT CONTROL FOR STRESS PERIOD   16   TIME STEP   17
 
 SOLVING FOR HEAD 
                                                   Max.-Head-Change                         Max.-Flux-Residual
  Residual-Control   Outer-Iter.   Inner-Iter.     Column Row Layer    Maximum-Head-Change  Column Row Layer    Maximum-Flux-Residual          L2-NORM 
          0                 1           2             4    7     1       0.7179644317E-02       4    7    1         0.3759120079E+00      0.1092694478E+01
          0                 2           2             4    7     1      -0.6983845427E-03       4    7    1        -0.3759126346E-01      0.1098559720E+00
          0                 3           1             4    7     1       0.4755738945E-04       4    7    1         0.2631388997E-02      0.7940363922E-02

    ------------------------------------------------
       NWT REQUIRED            3 OUTER ITERATIONS 
       AND A TOTAL OF          5 INNER ITERATIONS.
    ------------------------------------------------

 NO OUTPUT CONTROL FOR STRESS PERIOD   16   TIME STEP   18
 
 SOLVING FOR HEAD 
                                                   Max.-Head-Change                         Max.-Flux-Residual
  Residual-Control   Outer-Iter.   Inner-Iter.     Column Row Layer    Maximum-Head-Change  Column Row Layer    Maximum-Flux-Residual          L2-NORM 
          0                 1           2             4    7     1       0.7125214446E-02       4    7    1         0.3730448524E+00      0.1081329311E+01
          0                 2           2             4    7     1      -0.6930978458E-03       4    7    1        -0.3730454669E-01      0.1086024593E+00
          0                 3           1             4    7     1       0.4719738527E-04       4    7    1         0.2611318808E-02      0.7801949732E-02

    ------------------------------------------------
       NWT REQUIRED            3 OUTER ITERATIONS 
       AND A TOTAL OF          5 INNER ITERATIONS.
    ------------------------------------------------

 NO OUTPUT CONTROL FOR STRESS PERIOD   16   TIME STEP   19
 
 SOLVING FOR HEAD 
                                                   Max.-Head-Change                         Max.-Flux-Residual
  Residual-Control   Outer-Iter.   Inner-Iter.     Column Row Layer    Maximum-Head-Change  Column Row Layer    Maximum-Flux-Residual          L2-NORM 
          0                 1           2             4    7     1       0.7071463914E-02       4    7    1         0.3702149599E+00      0.1070790847E+01
          0                 2           2             4    7     1      -0.6878615045E-03       4    7    1        -0.3702155628E-01      0.1074414566E+00
          0                 3           1             4    7     1       0.4684081000E-04       4    7    1         0.2591509480E-02      0.7681000818E-02

    ------------------------------------------------
       NWT REQUIRED            3 OUTER ITERATIONS 
       AND A TOTAL OF          5 INNER ITERATIONS.
    ------------------------------------------------

 NO OUTPUT CONTROL FOR STRESS PERIOD   16   TIME STEP   20
 
 SOLVING FOR HEAD 
                                                   Max.-Head-Change                         Max.-Flux-Residual
  Residual-Control   Outer-Iter.   Inner-Iter.     Column Row Layer    Maximum-Head-Change  Column Row Layer    Maximum-Flux-Residual          L2-NORM 
          0                 1           2             4    7     1       0.7018399315E-02       4    7    1         0.3674211256E+00      0.1060956363E+01
          0                 2           2             4    7     1      -0.6826997487E-03       4    7    1        -0.3674217168E-01      0.1063827741E+00
          0                 3           1             4    7     1       0.4648931387E-04       4    7    1         0.2571952560E-02      0.7575568795E-02

    ------------------------------------------------
       NWT REQUIRED            3 OUTER ITERATIONS 
       AND A TOTAL OF          5 INNER ITERATIONS.
    ------------------------------------------------

 NO OUTPUT CONTROL FOR STRESS PERIOD   16   TIME STEP   21
 
 SOLVING FOR HEAD 
                                                   Max.-Head-Change                         Max.-Flux-Residual
  Residual-Control   Outer-Iter.   Inner-Iter.     Column Row Layer    Maximum-Head-Change  Column Row Layer    Maximum-Flux-Residual          L2-NORM 
          0                 1           2             4    7     1       0.6966137530E-02       4    7    1         0.3646697881E+00      0.1051747800E+01
          0                 2           2             4    7     1      -0.6776160857E-03       4    7    1        -0.3646703684E-01      0.1054021457E+00
          0                 3           1             4    7     1       0.4614313530E-04       4    7    1         0.2552693114E-02      0.7481584110E-02

    ------------------------------------------------
       NWT REQUIRED            3 OUTER ITERATIONS 
       AND A TOTAL OF          5 INNER ITERATIONS.
    ------------------------------------------------

 NO OUTPUT CONTROL FOR STRESS PERIOD   16   TIME STEP   22
 
 SOLVING FOR HEAD 
                                                   Max.-Head-Change                         Max.-Flux-Residual
  Residual-Control   Outer-Iter.   Inner-Iter.     Column Row Layer    Maximum-Head-Change  Column Row Layer    Maximum-Flux-Residual          L2-NORM 
          0                 1           2             4    7     1       0.6914516618E-02       4    7    1         0.3619527254E+00      0.1043053592E+01
          0                 2           2             4    7     1      -0.6725947630E-03       4    7    1        -0.3619532950E-01      0.1044855240E+00
          0                 3           1             4    7     1       0.4580120230E-04       4    7    1         0.2533673613E-02      0.7397730218E-02

    ------------------------------------------------
       NWT REQUIRED            3 OUTER ITERATIONS 
       AND A TOTAL OF          5 INNER ITERATIONS.
    ------------------------------------------------

 NO OUTPUT CONTROL FOR STRESS PERIOD   16   TIME STEP   23
 
 SOLVING FOR HEAD 
                                                   Max.-Head-Change                         Max.-Flux-Residual
  Residual-Control   Outer-Iter.   Inner-Iter.     Column Row Layer    Maximum-Head-Change  Column Row Layer    Maximum-Flux-Residual          L2-NORM 
          0                 1           2             4    7     1       0.6863526036E-02       4    7    1         0.3592688908E+00      0.1034819896E+01
          0                 2           2             4    7     1      -0.6676347539E-03       4    7    1        -0.3592694498E-01      0.1036270271E+00
          0                 3           1             4    7     1       0.4546344410E-04       4    7    1         0.2514886695E-02      0.7323696953E-02

    ------------------------------------------------
       NWT REQUIRED            3 OUTER ITERATIONS 
       AND A TOTAL OF          5 INNER ITERATIONS.
    ------------------------------------------------

 NO OUTPUT CONTROL FOR STRESS PERIOD   16   TIME STEP   24
 
 SOLVING FOR HEAD 
                                                   Max.-Head-Change                         Max.-Flux-Residual
  Residual-Control   Outer-Iter.   Inner-Iter.     Column Row Layer    Maximum-Head-Change  Column Row Layer    Maximum-Flux-Residual          L2-NORM 
          0                 1           2             4    7     1       0.6813151353E-02       4    7    1         0.3566177379E+00      0.1026985076E+01
          0                 2           2             4    7     1      -0.6627346556E-03       4    7    1        -0.3566182866E-01      0.1028111260E+00
          0                 3           1             4    7     1       0.4512976591E-04       4    7    1         0.2496328558E-02      0.7251143388E-02

    ------------------------------------------------
       NWT REQUIRED            3 OUTER ITERATIONS 
       AND A TOTAL OF          5 INNER ITERATIONS.
    ------------------------------------------------

 NO OUTPUT CONTROL FOR STRESS PERIOD   16   TIME STEP   25
 
 SOLVING FOR HEAD 
                                                   Max.-Head-Change                         Max.-Flux-Residual
  Residual-Control   Outer-Iter.   Inner-Iter.     Column Row Layer    Maximum-Head-Change  Column Row Layer    Maximum-Flux-Residual          L2-NORM 
          0                 1           2             4    7     1       0.6763381946E-02       4    7    1         0.3539985184E+00      0.1019503855E+01
          0                 2           2             4    7     1      -0.6578934351E-03       4    7    1        -0.3539990573E-01      0.1020393770E+00
          0                 3           1             4    7     1       0.4480009708E-04       4    7    1         0.2477993967E-02      0.7186812860E-02

    ------------------------------------------------
       NWT REQUIRED            3 OUTER ITERATIONS 
       AND A TOTAL OF          5 INNER ITERATIONS.
    ------------------------------------------------

 NO OUTPUT CONTROL FOR STRESS PERIOD   16   TIME STEP   26
 
 SOLVING FOR HEAD 
                                                   Max.-Head-Change                         Max.-Flux-Residual
  Residual-Control   Outer-Iter.   Inner-Iter.     Column Row Layer    Maximum-Head-Change  Column Row Layer    Maximum-Flux-Residual          L2-NORM 
          0                 1           2             4    7     1       0.6714340270E-02       4    7    1         0.3514180323E+00      0.1012332557E+01
          0                 2           2             4    7     1      -0.6531230023E-03       4    7    1        -0.3514185611E-01      0.1013049993E+00
          0                 3           1             4    7     1       0.4447524846E-04       4    7    1         0.2459930485E-02      0.7127269556E-02

    ------------------------------------------------
       NWT REQUIRED            3 OUTER ITERATIONS 
       AND A TOTAL OF          5 INNER ITERATIONS.
    ------------------------------------------------

 NO OUTPUT CONTROL FOR STRESS PERIOD   16   TIME STEP   27
 
 SOLVING FOR HEAD 
                                                   Max.-Head-Change                         Max.-Flux-Residual
  Residual-Control   Outer-Iter.   Inner-Iter.     Column Row Layer    Maximum-Head-Change  Column Row Layer    Maximum-Flux-Residual          L2-NORM 
          0                 1           2             4    7     1       0.6665871348E-02       4    7    1         0.3488679274E+00      0.1005426977E+01
          0                 2           2             4    7     1      -0.6484082838E-03       4    7    1        -0.3488684468E-01      0.1005992749E+00
          0                 3           1             4    7     1       0.4415419372E-04       4    7    1         0.2442079686E-02      0.7071232731E-02

    ------------------------------------------------
       NWT REQUIRED            3 OUTER ITERATIONS 
       AND A TOTAL OF          5 INNER ITERATIONS.
    ------------------------------------------------

 NO OUTPUT CONTROL FOR STRESS PERIOD   16   TIME STEP   28
 
 SOLVING FOR HEAD 
                                                   Max.-Head-Change                         Max.-Flux-Residual
  Residual-Control   Outer-Iter.   Inner-Iter.     Column Row Layer    Maximum-Head-Change  Column Row Layer    Maximum-Flux-Residual          L2-NORM 
          0                 1           2             4    7     1       0.6617964622E-02       4    7    1         0.3463475188E+00      0.9987723167E+00
          0                 2           2             4    7     1      -0.6437482521E-03       4    7    1        -0.3463480289E-01      0.9992200251E-01
          0                 3           1             4    7     1       0.4383686302E-04       4    7    1         0.2424436773E-02      0.7018387448E-02

    ------------------------------------------------
       NWT REQUIRED            3 OUTER ITERATIONS 
       AND A TOTAL OF          5 INNER ITERATIONS.
    ------------------------------------------------

 NO OUTPUT CONTROL FOR STRESS PERIOD   16   TIME STEP   29
 
 SOLVING FOR HEAD 
                                                   Max.-Head-Change                         Max.-Flux-Residual
  Residual-Control   Outer-Iter.   Inner-Iter.     Column Row Layer    Maximum-Head-Change  Column Row Layer    Maximum-Flux-Residual          L2-NORM 
          0                 1           2             4    7     1       0.6570718729E-02       4    7    1         0.3438636102E+00      0.9743459605E+00
          0                 2           2             4    7     1      -0.6391525017E-03       4    7    1        -0.3438641113E-01      0.9747345403E-01
          0                 3           1             4    7     1       0.4352390972E-04       4    7    1         0.2407049348E-02      0.6837112693E-02

    ------------------------------------------------
       NWT REQUIRED            3 OUTER ITERATIONS 
       AND A TOTAL OF          5 INNER ITERATIONS.
    ------------------------------------------------

 NO OUTPUT CONTROL FOR STRESS PERIOD   16   TIME STEP   30



 STREAM LISTING     PERIOD     16   STEP       30

 LAYER ROW COL. STREAM  RCH.  FLOW INTO     FLOW TO   FLOW OUT OF   OVRLND.     DIRECT     STREAM       STREAM     STREAM     STREAM   STREAMBED  STREAMBED
                SEG.NO.  NO.  STRM. RCH.    AQUIFER    STRM. RCH.    RUNOFF     PRECIP       ET          HEAD       DEPTH      WIDTH   CONDCTNC.   GRADIENT

   1    1    1     1     1    3.3171E+01  2.7949E-01   3.2891E+01  0.000E+00  0.000E+00  0.000E+00  1.09432E+03  1.277E+00  1.452E+01  6.535E-02  1.426E+00
   1    2    2     1     2    3.2891E+01  4.3266E-01   3.2458E+01  0.000E+00  0.000E+00  0.000E+00  1.08933E+03  1.274E+00  1.446E+01  1.012E-01  1.425E+00
   1    3    3     1     3    3.2458E+01  3.6882E-01   3.2090E+01  0.000E+00  0.000E+00  0.000E+00  1.08369E+03  1.270E+00  1.439E+01  8.637E-02  1.423E+00
   1    3    4     1     4    3.2090E+01  3.3948E-01   3.1750E+01  0.000E+00  0.000E+00  0.000E+00  1.07868E+03  1.267E+00  1.433E+01  7.955E-02  1.422E+00
   1    4    5     2     1    2.9750E+01  3.3819E-01   2.9412E+01  0.000E+00  0.000E+00  0.000E+00  1.07327E+03  1.336E+00  1.200E+01  7.800E-02  1.445E+00
   1    5    6     2     2    2.9412E+01  2.5966E-01   2.9152E+01  0.000E+00  0.000E+00  0.000E+00  1.06784E+03  1.328E+00  1.200E+01  6.000E-02  1.443E+00
   1    6    6     2     3    2.9152E+01  2.5924E-01   2.8893E+01  0.000E+00  0.000E+00  0.000E+00  1.06311E+03  1.321E+00  1.200E+01  6.000E-02  1.440E+00
   1    7    6     2     4    2.8893E+01  2.5881E-01   2.8634E+01  0.000E+00  0.000E+00  0.000E+00  1.05839E+03  1.314E+00  1.200E+01  6.000E-02  1.438E+00
   1    8    6     2     5    2.8634E+01  2.5839E-01   2.8376E+01  0.000E+00  0.000E+00  0.000E+00  1.05367E+03  1.306E+00  1.200E+01  6.000E-02  1.435E+00
   1    3    5     3     1    2.0000E+00  2.8252E-01   1.7175E+00  0.000E+00  0.000E+00  0.000E+00  1.07555E+03  1.909E+00  9.636E+00  7.227E-02  1.955E+00
   1    3    6     3     2    1.7175E+00  2.4905E-01   1.4684E+00  0.000E+00  0.000E+00  0.000E+00  1.07264E+03  1.727E+00  8.909E+00  6.682E-02  1.864E+00
   1    3    7     3     3    1.4684E+00  1.9718E-01   1.2712E+00  0.000E+00  0.000E+00  0.000E+00  1.06987E+03  1.555E+00  8.218E+00  5.547E-02  1.777E+00
   1    4    8     3     4    1.2712E+00  2.2567E-01   1.0456E+00  0.000E+00  0.000E+00  0.000E+00  1.06682E+03  1.364E+00  7.455E+00  6.709E-02  1.682E+00
   1    5    8     3     5    1.0456E+00  1.5790E-01   8.8768E-01  0.000E+00  0.000E+00  0.000E+00  1.06362E+03  1.164E+00  6.655E+00  4.991E-02  1.582E+00
   1    6    8     3     6    8.8768E-01  5.5980E-02   8.3170E-01  0.000E+00  0.000E+00  0.000E+00  1.06158E+03  1.036E+00  6.145E+00  1.844E-02  1.518E+00
   1    5   10     4     1    1.0000E+01  9.0919E-02   9.9091E+00  0.000E+00  0.000E+00  0.000E+00  1.07836E+03  6.368E-01  1.000E+01  2.500E-02  1.212E+00
   1    5    9     4     2    9.9091E+00  1.8158E-01   9.7275E+00  0.000E+00  0.000E+00  0.000E+00  1.07154E+03  6.315E-01  1.000E+01  5.000E-02  1.211E+00
   1    6    8     4     3    9.7275E+00  1.2689E-01   9.6006E+00  0.000E+00  0.000E+00  0.000E+00  1.06381E+03  6.256E-01  1.000E+01  3.500E-02  1.209E+00
   1    6    8     5     1    1.0432E+01  2.2686E-01   1.0205E+01  0.000E+00  0.000E+00  0.000E+00  1.05868E+03  6.790E-01  1.542E+01  6.166E-02  1.226E+00
   1    7    7     5     2    1.0205E+01  2.7894E-01   9.9265E+00  0.000E+00  0.000E+00  0.000E+00  1.05417E+03  6.732E-01  1.519E+01  7.594E-02  1.224E+00
   1    8    7     5     3    9.9265E+00  1.9221E-01   9.7343E+00  0.000E+00  0.000E+00  0.000E+00  1.04992E+03  6.676E-01  1.497E+01  5.241E-02  1.223E+00
   1    8    6     5     4    9.7343E+00  1.3577E-01   9.5985E+00  0.000E+00  0.000E+00  0.000E+00  1.04691E+03  6.637E-01  1.482E+01  3.706E-02  1.221E+00
   1    9    6     6     1    3.7974E+01  2.7395E-01   3.7700E+01  0.000E+00  0.000E+00  0.000E+00  1.04429E+03  1.566E+00  1.200E+01  6.000E-02  1.522E+00
   1   10    7     6     2    3.7700E+01  2.7354E-01   3.7427E+01  0.000E+00  0.000E+00  0.000E+00  1.03974E+03  1.559E+00  1.200E+01  6.000E-02  1.520E+00
   1   11    7     6     3    3.7427E+01  2.7313E-01   3.7154E+01  0.000E+00  0.000E+00  0.000E+00  1.03519E+03  1.552E+00  1.200E+01  6.000E-02  1.517E+00
   1   12    7     6     4    3.7154E+01  2.7272E-01   3.6881E+01  0.000E+00  0.000E+00  0.000E+00  1.03064E+03  1.545E+00  1.200E+01  6.000E-02  1.515E+00
   1   13    7     6     5    3.6881E+01  1.5737E-02   3.6865E+01  0.000E+00  0.000E+00  0.000E+00  1.02745E+03  1.542E+00  1.200E+01  2.400E-02  2.186E-01
   1   14    9     7     1    1.5000E+02  1.3707E+00   1.4863E+02  0.000E+00  0.000E+00  0.000E+00  1.03987E+03  2.288E+00  5.529E+01  5.593E-01  8.169E-01
   1   13    8     7     2    1.4863E+02  1.9297E+00   1.4670E+02  0.000E+00  0.000E+00  0.000E+00  1.03478E+03  2.279E+00  5.525E+01  6.148E-01  1.046E+00
   1   13    7     7     3    1.4670E+02  1.6158E+00   1.4508E+02  0.000E+00  0.000E+00  0.000E+00  1.02969E+03  2.269E+00  5.521E+01  5.584E-01  9.646E-01
   1   13    6     8     1    1.8195E+02  1.1113E+00   1.8084E+02  0.000E+00  0.000E+00  0.000E+00  1.02490E+03  3.025E+00  4.386E+01  4.470E-01  8.288E-01
   1   13    5     8     2    1.8084E+02  3.2897E-01   1.8051E+02  0.000E+00  0.000E+00  0.000E+00  1.01865E+03  3.020E+00  4.380E+01  4.463E-01  2.457E-01
   1   13    4     8     3    1.8051E+02 -2.0137E+00   1.8252E+02  0.000E+00  0.000E+00  0.000E+00  1.01240E+03  3.026E+00  4.387E+01  4.471E+00 -1.501E-01
   1   13    3     8     4    1.8252E+02 -3.4821E+00   1.8600E+02  0.000E+00  0.000E+00  0.000E+00  1.00617E+03  3.043E+00  4.412E+01  4.496E+00 -2.582E-01
   1   13    2     8     5    1.8600E+02 -2.5201E+00   1.8852E+02  0.000E+00  0.000E+00  0.000E+00  9.99936E+02  3.061E+00  4.439E+01  4.523E+00 -1.857E-01
   1   13    1     8     6    1.8852E+02 -1.9238E+00   1.9045E+02  0.000E+00  0.000E+00  0.000E+00  9.94950E+02  3.075E+00  4.458E+01  2.726E+00 -2.352E-01
   1    8    6     9     1    0.0000E+00  0.0000E+00   0.0000E+00  0.000E+00  0.000E+00  0.000E+00  1.07875E+03  0.000E+00  4.000E+00  0.000E+00  1.000E+00
   1    8    5     9     2    0.0000E+00  0.0000E+00   0.0000E+00  0.000E+00  0.000E+00  0.000E+00  1.07825E+03  0.000E+00  4.000E+00  0.000E+00  1.000E+00





UNSATURATED ZONE PACKAGE VOLUMETRIC BUDGET FOR  TIME STEP    30 STRESS PERIOD   16
  ------------------------------------------------------------------------------



     CUMULATIVE VOLUMES      L**3       RATES FOR THIS TIME STEP      L**3/T
     ------------------                 ------------------------

           IN:                                      IN:
           ---                                      ---
        INFILTRATION =   657626864.8132          INFILTRATION =           4.4075

          OUT:                                     OUT:
          ----                                     ----
              UZF ET =   503910321.6008                UZF ET =           0.7250
        UZF RECHARGE =      164732.3137          UZF RECHARGE =           0.0342

            IN - OUT =   153551810.8987              IN - OUT =           3.6483

          STORAGE:                                 STORAGE:
          --------                                 --------
      STORAGE CHANGE =   153551802.3623        STORAGE CHANGE =           3.6483

 PERCENT DISCREPANCY IS DIFFERENCE BETWEEN IN-OUT MINUS CHANGE IN STORAGE
 DIVIDED BY THE AVERAGE OF IN AND OUT TIMES 100

 PERCENT DISCREPANCY =           0.00     PERCENT DISCREPANCY =           0.00






1
  VOLUMETRIC BUDGET FOR AGRICULTURAL FIELDS AT  END OF TIME STEP   30, STRESS PERIOD  16
  ------------------------------------------------------------------------------

     CUMULATIVE VOLUMES      L**3       RATES FOR THIS TIME STEP      L**3/T
     ------------------                 ------------------------

           IN:                                      IN:
           ---                                      ---
               AG WELLS  =   266612848.0000                 AG WELLS  =           0.0000
      DIVERSION SEGMENTS =   217175360.0000        DIVERSION SEGMENTS =           0.0000
           GW IRRIGATION =           0.0000             GW IRRIGATION =           0.0000
           SW IRRIGATION =           0.0000             SW IRRIGATION =           0.0000
        SYSTEM LOSSES GW =           0.0000          SYSTEM LOSSES GW =           0.0000
        SYSTEM LOSSES SW =           0.0000          SYSTEM LOSSES SW =           0.0000

                TOTAL IN =   483788224.0000                  TOTAL IN =           0.0000

          OUT:                                     OUT:
          ----                                     ----
               AG WELLS  =           0.0000                 AG WELLS  =           0.0000
      DIVERSION SEGMENTS =           0.0000        DIVERSION SEGMENTS =           0.0000
           GW IRRIGATION =   266612848.0000             GW IRRIGATION =           0.0000
           SW IRRIGATION =   217179728.0000             SW IRRIGATION =           0.0000
        SYSTEM LOSSES GW =           0.0000          SYSTEM LOSSES GW =           0.0000
        SYSTEM LOSSES SW =           0.0000          SYSTEM LOSSES SW =           0.0000

               TOTAL OUT =   483792576.0000                 TOTAL OUT =           0.0000

                IN - OUT =       -4352.0000                  IN - OUT =           0.0000

     PERCENT DISCREPANCY =          -0.00         PERCENT DISCREPANCY =           0.00



1
  VOLUMETRIC BUDGET FOR ENTIRE MODEL AT END OF TIME STEP   30, STRESS PERIOD  16
  ------------------------------------------------------------------------------

     CUMULATIVE VOLUMES      L**3       RATES FOR THIS TIME STEP      L**3/T
     ------------------                 ------------------------

           IN:                                      IN:
           ---                                      ---
             STORAGE     =   415291040.0000               STORAGE     =           1.8483
       CONSTANT HEAD     =           0.0000         CONSTANT HEAD     =           0.0000
     HEAD DEP BOUNDS     =    11385210.0000       HEAD DEP BOUNDS     =           0.2881
      STREAM LEAKAGE     =   463352448.0000        STREAM LEAKAGE     =          12.6618
        UZF RECHARGE     =      164732.2656          UZF RECHARGE     =       3.4233E-02
               GW ET     =           0.0000                 GW ET     =           0.0000
     SURFACE LEAKAGE     =           0.0000       SURFACE LEAKAGE     =           0.0000
           AG WELLS      =           0.0000             AG WELLS      =           0.0000

                TOTAL IN =   890193408.0000                  TOTAL IN =          14.8324

          OUT:                                     OUT:
          ----                                     ----
             STORAGE     =   207528832.0000               STORAGE     =           4.6027
       CONSTANT HEAD     =           0.0000         CONSTANT HEAD     =           0.0000
     HEAD DEP BOUNDS     =    11386178.0000       HEAD DEP BOUNDS     =           0.2909
      STREAM LEAKAGE     =   404672192.0000        STREAM LEAKAGE     =           9.9397
        UZF RECHARGE     =           0.0000          UZF RECHARGE     =           0.0000
               GW ET     =           0.0000                 GW ET     =           0.0000
     SURFACE LEAKAGE     =           0.0000       SURFACE LEAKAGE     =           0.0000
           AG WELLS      =   266612848.0000             AG WELLS      =           0.0000

               TOTAL OUT =   890200064.0000                 TOTAL OUT =          14.8333

                IN - OUT =       -6656.0000                  IN - OUT =      -8.6498E-04

     PERCENT DISCREPANCY =          -0.00         PERCENT DISCREPANCY =          -0.01






         TIME SUMMARY AT END OF TIME STEP   30 IN STRESS PERIOD   16
                    SECONDS     MINUTES      HOURS       DAYS        YEARS
                    -----------------------------------------------------------
   TIME STEP LENGTH  87667.      1461.1      24.352      1.0147     2.77799E-03
 STRESS PERIOD TIME 2.63000E+06  43833.      730.56      30.440     8.33397E-02
         TOTAL TIME 3.95364E+07 6.58940E+05  10982.      457.60      1.2528    
1
1
                            STRESS PERIOD NO.   17, LENGTH =   2630000.    
                            -----------------------------------------------

                              NUMBER OF TIME STEPS =    30

                               MULTIPLIER FOR DELT =     1.000

                            INITIAL TIME STEP SIZE =   87666.66    

 REUSING NON-PARAMETER GHB CELLS FROM LAST STRESS PERIOD

      2 GHB CELLS

 REUSING STREAM SEGMENT DATA FROM LAST STRESS PERIOD



            AREAL INFILTRATION RATE
 READING ON UNIT   19 WITH FORMAT: (10F4.0)            

            1           2           3           4           5           6           7           8           9          10
 ........................................................................................................................
   1   1.2000E-09   0.000       0.000       0.000       0.000       0.000       0.000       0.000       0.000       0.000    
   2   2.1000E-09  2.0000E-09  8.0000E-10  8.5000E-09   0.000       0.000       0.000       0.000       0.000       0.000    
   3   5.0000E-10  1.1000E-09  8.8000E-09  5.5000E-09   0.000       0.000       0.000       0.000       0.000       0.000    
   4   8.5000E-09  1.1000E-09  1.1000E-09  1.1000E-09  2.0000E-09   0.000       0.000       0.000       0.000       0.000    
   5   8.5000E-09  1.1000E-09  1.1000E-09  1.1000E-09  1.1000E-09   0.000       0.000       0.000       0.000       0.000    
   6   8.5000E-09  5.2000E-09  2.1000E-09  1.1000E-09  1.5000E-09   0.000       0.000       0.000       0.000       0.000    
   7   8.5000E-09  5.2000E-09  2.1000E-09  1.2000E-09  2.0000E-09   0.000       0.000       0.000       0.000       0.000    
   8   5.0000E-10  5.2000E-09  2.1000E-09  1.2000E-09  5.0000E-09   0.000       0.000       0.000       0.000       0.000    
   9   5.0000E-10  5.2000E-09  2.1000E-09  1.2000E-09  5.0000E-09   0.000       0.000       0.000       0.000       0.000    
  10   5.0000E-10  5.2000E-09  2.1000E-09  1.2000E-09  5.8000E-09   0.000       0.000       0.000       0.000       0.000    
  11   1.0000E-10  1.1000E-09  1.1000E-09  1.2000E-09  5.0000E-09   0.000       0.000       0.000       0.000       0.000    
  12   1.1000E-09  1.1000E-09  1.1000E-09  1.1000E-09  2.0000E-09   0.000       0.000       0.000       0.000       0.000    
  13   1.1000E-09  2.2000E-09  2.2000E-09  2.1000E-09  1.0000E-09   0.000       0.000       0.000       0.000       0.000    
  14   2.0000E-10  5.5000E-09  5.5000E-09  5.2000E-09  1.0000E-09   0.000       0.000       0.000       0.000       0.000    
  15    0.000      8.8000E-09  8.8000E-09   0.000       0.000       0.000       0.000       0.000       0.000       0.000    

                  ET RATE =  2.500000E-08

 USING ET EXTINCTION DEPTH FROM PREVIOUS STRESS PERIOD. CURRENT PERIOD IS:      17

 USING EXTINCTION WATER CONTENT FROM PREVIOUS STRESS PERIOD. CURRENT PERIOD IS:      17

 USING AIR ENTRY PRESSURE FROM PREVIOUS STRESS PERIOD. CURRENT PERIOD IS:      17

 USING ROOT PRESSURE HEAD FROM PREVIOUS STRESS PERIOD. CURRENT PERIOD IS:      17

 USING ROOT ACTIVITY FROM PREVIOUS STRESS PERIOD. CURRENT PERIOD IS:      17

 PROCESSING AG STRESS PERIOD DATA

 READING AG STRESS PERIOD DATA

 READING IRRIGATION SEGMENT

 READING IRRIGATION WELL

 READING SUPPLEMENTAL WELL

 END PROCESSING AG STRESS PERIOD DATA OPTIONS
 
 SOLVING FOR HEAD 
                                                   Max.-Head-Change                         Max.-Flux-Residual
  Residual-Control   Outer-Iter.   Inner-Iter.     Column Row Layer    Maximum-Head-Change  Column Row Layer    Maximum-Flux-Residual          L2-NORM 
          0                 1           2             4    7     1       0.6523948085E-02       4    7    1         0.3414066135E+00      0.9761933562E+00
          0                 2           2             4    7     1      -0.6346029808E-03       4    7    1        -0.3414071061E-01      0.9818229763E-01
          0                 3           1             4    7     1       0.4321410381E-04       4    7    1         0.2389850310E-02      0.7088994759E-02

    ------------------------------------------------
       NWT REQUIRED            3 OUTER ITERATIONS 
       AND A TOTAL OF          5 INNER ITERATIONS.
    ------------------------------------------------

 NO OUTPUT CONTROL FOR STRESS PERIOD   17   TIME STEP    1
 
 SOLVING FOR HEAD 
                                                   Max.-Head-Change                         Max.-Flux-Residual
  Residual-Control   Outer-Iter.   Inner-Iter.     Column Row Layer    Maximum-Head-Change  Column Row Layer    Maximum-Flux-Residual          L2-NORM 
          0                 1           2             4    7     1       0.6477646058E-02       4    7    1         0.3389742572E+00      0.9664389786E+00
          0                 2           2             4    7     1      -0.6479533688E-03       4    7    1        -0.3485632103E-01      0.9879684272E-01
          0                 3           1             3   13     1      -0.3491492652E-04       3   13    1        -0.1996375193E-02      0.6307769361E-02

    ------------------------------------------------
       NWT REQUIRED            3 OUTER ITERATIONS 
       AND A TOTAL OF          5 INNER ITERATIONS.
    ------------------------------------------------

 NO OUTPUT CONTROL FOR STRESS PERIOD   17   TIME STEP    2
 
 SOLVING FOR HEAD 
                                                   Max.-Head-Change                         Max.-Flux-Residual
  Residual-Control   Outer-Iter.   Inner-Iter.     Column Row Layer    Maximum-Head-Change  Column Row Layer    Maximum-Flux-Residual          L2-NORM 
          0                 1           2             4    7     1       0.6432032826E-02       4    7    1         0.3365773657E+00      0.9575663532E+00
          0                 2           2             4    7     1      -0.1066159231E-02       4    7    1        -0.5731420271E-01      0.1438396871E+00
          0                 3           2             4    7     1       0.1805831797E-03       4    7    1         0.9973155756E-02      0.2506511327E-01
          0                 4           1             4    7     1       0.6880497417E-04       5    6    1         0.3822327475E-02      0.1029556470E-01

    ------------------------------------------------
       NWT REQUIRED            4 OUTER ITERATIONS 
       AND A TOTAL OF          7 INNER ITERATIONS.
    ------------------------------------------------

 NO OUTPUT CONTROL FOR STRESS PERIOD   17   TIME STEP    3
 
 SOLVING FOR HEAD 
                                                   Max.-Head-Change                         Max.-Flux-Residual
  Residual-Control   Outer-Iter.   Inner-Iter.     Column Row Layer    Maximum-Head-Change  Column Row Layer    Maximum-Flux-Residual          L2-NORM 
          0                 1           2             4    7     1       0.6388271034E-02       4    7    1         0.3342722269E+00      0.9493410569E+00
          0                 2           2             4    7     1      -0.6176584807E-02       4    7    1        -0.3317621958E+00      0.8056983700E+00
          0                 3           2             4    7     1       0.5824702641E-02       4    7    1         0.3215582507E+00      0.7898860330E+00
          0                 4           2             4    7     1      -0.2317709293E-03       4    7    1        -0.1315178523E-01      0.3310006190E-01
          0                 5           1             3   13     1      -0.1221012150E-04       3   13    1        -0.6988799587E-03      0.8926917081E-03

    ------------------------------------------------
       NWT REQUIRED            5 OUTER ITERATIONS 
       AND A TOTAL OF          9 INNER ITERATIONS.
    ------------------------------------------------

 NO OUTPUT CONTROL FOR STRESS PERIOD   17   TIME STEP    4
 
 SOLVING FOR HEAD 
                                                   Max.-Head-Change                         Max.-Flux-Residual
  Residual-Control   Outer-Iter.   Inner-Iter.     Column Row Layer    Maximum-Head-Change  Column Row Layer    Maximum-Flux-Residual          L2-NORM 
          0                 1           2             4    7     1       0.6343589576E-02       4    7    1         0.3319257425E+00      0.9405680468E+00
          0                 2           2             4    7     1      -0.6049454196E-02       4    7    1        -0.3249336039E+00      0.7890062235E+00
          0                 3           2             4    7     1       0.5656951331E-02       4    7    1         0.3122974664E+00      0.7670980633E+00
          0                 4           2             4    7     1      -0.2186624937E-03       4    7    1        -0.1240795802E-01      0.3111342802E-01
          0                 5           1             4   13     1      -0.8006423896E-05       4   13    1        -0.4857903850E-03      0.1383418103E-02

    ------------------------------------------------
       NWT REQUIRED            5 OUTER ITERATIONS 
       AND A TOTAL OF          9 INNER ITERATIONS.
    ------------------------------------------------

 NO OUTPUT CONTROL FOR STRESS PERIOD   17   TIME STEP    5
 
 SOLVING FOR HEAD 
                                                   Max.-Head-Change                         Max.-Flux-Residual
  Residual-Control   Outer-Iter.   Inner-Iter.     Column Row Layer    Maximum-Head-Change  Column Row Layer    Maximum-Flux-Residual          L2-NORM 
          0                 1           2             4    7     1       0.6299567989E-02       4    7    1         0.3296130817E+00      0.9331757149E+00
          0                 2           2             4    7     1      -0.6074200375E-02       4    7    1        -0.3262613264E+00      0.7924536410E+00
          0                 3           2             4    7     1       0.5710344891E-02       4    7    1         0.3152450422E+00      0.7741573088E+00
          0                 4           2             4    7     1      -0.2246140849E-03       4    7    1        -0.1274567433E-01      0.3178740356E-01
          0                 5           1             4   13     1      -0.5760656781E-05       4   13    1        -0.3491371444E-03      0.9105305916E-03

    ------------------------------------------------
       NWT REQUIRED            5 OUTER ITERATIONS 
       AND A TOTAL OF          9 INNER ITERATIONS.
    ------------------------------------------------

 NO OUTPUT CONTROL FOR STRESS PERIOD   17   TIME STEP    6
 
 SOLVING FOR HEAD 
                                                   Max.-Head-Change                         Max.-Flux-Residual
  Residual-Control   Outer-Iter.   Inner-Iter.     Column Row Layer    Maximum-Head-Change  Column Row Layer    Maximum-Flux-Residual          L2-NORM 
          0                 1           2             4    7     1       0.6255977843E-02       4    7    1         0.3273238819E+00      0.9262527142E+00
          0                 2           2             4    7     1      -0.6067762755E-02       4    7    1        -0.3259144481E+00      0.7916077162E+00
          0                 3           2             4    7     1       0.5702001096E-02       4    7    1         0.3147843951E+00      0.7727923973E+00
          0                 4           2             4    7     1      -0.2233444093E-03       4    7    1        -0.1267362665E-01      0.3154500343E-01
          0                 5           1             4   13     1      -0.6293937399E-05       4   13    1        -0.3818128143E-03      0.1016654380E-02

    ------------------------------------------------
       NWT REQUIRED            5 OUTER ITERATIONS 
       AND A TOTAL OF          9 INNER ITERATIONS.
    ------------------------------------------------

 NO OUTPUT CONTROL FOR STRESS PERIOD   17   TIME STEP    7
 
 SOLVING FOR HEAD 
                                                   Max.-Head-Change                         Max.-Flux-Residual
  Residual-Control   Outer-Iter.   Inner-Iter.     Column Row Layer    Maximum-Head-Change  Column Row Layer    Maximum-Flux-Residual          L2-NORM 
          0                 1           2             4    7     1       0.6212838874E-02       4    7    1         0.3250580749E+00      0.9197351882E+00
          0                 2           2             4    7     1      -0.6073829036E-02       4    7    1        -0.3262390606E+00      0.7922902876E+00
          0                 3           2             4    7     1       0.5711926883E-02       4    7    1         0.3153323243E+00      0.7741664027E+00
          0                 4           2             4    7     1      -0.2236518332E-03       4    7    1        -0.1269107001E-01      0.3159353515E-01
          0                 5           1             4   13     1      -0.6329470341E-05       4   13    1        -0.3838963621E-03      0.1029612313E-02

    ------------------------------------------------
       NWT REQUIRED            5 OUTER ITERATIONS 
       AND A TOTAL OF          9 INNER ITERATIONS.
    ------------------------------------------------

 NO OUTPUT CONTROL FOR STRESS PERIOD   17   TIME STEP    8
 
 SOLVING FOR HEAD 
                                                   Max.-Head-Change                         Max.-Flux-Residual
  Residual-Control   Outer-Iter.   Inner-Iter.     Column Row Layer    Maximum-Head-Change  Column Row Layer    Maximum-Flux-Residual          L2-NORM 
          0                 1           2             4    7     1       0.6170115327E-02       4    7    1         0.3228141356E+00      0.9135751373E+00
          0                 2           2             4    7     1      -0.6077261489E-02       4    7    1        -0.3264222425E+00      0.7927670852E+00
          0                 3           2             4    7     1       0.5719050935E-02       4    7    1         0.3157255836E+00      0.7751510508E+00
          0                 4           2             4    7     1      -0.2238477751E-03       4    7    1        -0.1270218745E-01      0.3162343505E-01
          0                 5           1             4   13     1      -0.6391483353E-05       4   13    1        -0.3876220298E-03      0.1042210277E-02

    ------------------------------------------------
       NWT REQUIRED            5 OUTER ITERATIONS 
       AND A TOTAL OF          9 INNER ITERATIONS.
    ------------------------------------------------

 NO OUTPUT CONTROL FOR STRESS PERIOD   17   TIME STEP    9
 
 SOLVING FOR HEAD 
                                                   Max.-Head-Change                         Max.-Flux-Residual
  Residual-Control   Outer-Iter.   Inner-Iter.     Column Row Layer    Maximum-Head-Change  Column Row Layer    Maximum-Flux-Residual          L2-NORM 
          0                 1           2             4    7     1       0.6127937881E-02       4    7    1         0.3205990951E+00      0.9075986537E+00
          0                 2           2             4    7     1      -0.6053990232E-02       4    7    1        -0.3251713655E+00      0.7899127977E+00
          0                 3           2             4    7     1       0.5690198788E-02       4    7    1         0.3141327668E+00      0.7712415645E+00
          0                 4           2             4    7     1      -0.2212984682E-03       4    7    1        -0.1255752820E-01      0.3125081606E-01
          0                 5           1             4   13     1      -0.7184032440E-05       4   13    1        -0.4353836503E-03      0.1219043169E-02

    ------------------------------------------------
       NWT REQUIRED            5 OUTER ITERATIONS 
       AND A TOTAL OF          9 INNER ITERATIONS.
    ------------------------------------------------

 NO OUTPUT CONTROL FOR STRESS PERIOD   17   TIME STEP   10
 
 SOLVING FOR HEAD 
                                                   Max.-Head-Change                         Max.-Flux-Residual
  Residual-Control   Outer-Iter.   Inner-Iter.     Column Row Layer    Maximum-Head-Change  Column Row Layer    Maximum-Flux-Residual          L2-NORM 
          0                 1           2             4    7     1       0.6086208452E-02       4    7    1         0.3184073532E+00      0.9020727135E+00
          0                 2           2             4    7     1      -0.6074230771E-02       4    7    1        -0.3262572343E+00      0.7927894910E+00
          0                 3           2             4    7     1       0.5721172216E-02       4    7    1         0.3158426400E+00      0.7754369287E+00
          0                 4           2             4    7     1      -0.2234882097E-03       4    7    1        -0.1268178210E-01      0.3156792658E-01
          0                 5           1             4   13     1      -0.6695661522E-05       4   13    1        -0.4058403911E-03      0.1099980175E-02

    ------------------------------------------------
       NWT REQUIRED            5 OUTER ITERATIONS 
       AND A TOTAL OF          9 INNER ITERATIONS.
    ------------------------------------------------

 NO OUTPUT CONTROL FOR STRESS PERIOD   17   TIME STEP   11
 
 SOLVING FOR HEAD 
                                                   Max.-Head-Change                         Max.-Flux-Residual
  Residual-Control   Outer-Iter.   Inner-Iter.     Column Row Layer    Maximum-Head-Change  Column Row Layer    Maximum-Flux-Residual          L2-NORM 
          0                 1           2             4    7     1       0.6044840459E-02       4    7    1         0.3162346537E+00      0.8969045093E+00
          0                 2           2             4    7     1      -0.6059473313E-02       4    7    1        -0.3254635868E+00      0.7910474737E+00
          0                 3           2             4    7     1       0.5714754922E-02       4    7    1         0.3154883464E+00      0.7745609770E+00
          0                 4           2             4    7     1      -0.2240675854E-03       4    7    1        -0.1271465724E-01      0.3165475003E-01
          0                 5           1             4   13     1      -0.6124724057E-05       4   13    1        -0.3712025609E-03      0.9915280059E-03

    ------------------------------------------------
       NWT REQUIRED            5 OUTER ITERATIONS 
       AND A TOTAL OF          9 INNER ITERATIONS.
    ------------------------------------------------

 NO OUTPUT CONTROL FOR STRESS PERIOD   17   TIME STEP   12
 
 SOLVING FOR HEAD 
                                                   Max.-Head-Change                         Max.-Flux-Residual
  Residual-Control   Outer-Iter.   Inner-Iter.     Column Row Layer    Maximum-Head-Change  Column Row Layer    Maximum-Flux-Residual          L2-NORM 
          0                 1           2             4    7     1       0.6003967267E-02       4    7    1         0.3140883312E+00      0.8920421636E+00
          0                 2           2             4    7     1      -0.6043537588E-02       4    7    1        -0.3246067138E+00      0.7891406763E+00
          0                 3           2             4    7     1       0.5712996158E-02       4    7    1         0.3153912318E+00      0.7743715258E+00
          0                 4           2             4    7     1      -0.2257868014E-03       4    7    1        -0.1281221181E-01      0.3181573198E-01
          0                 5           1             2   13     1      -0.4440180626E-05       2   13    1        -0.2639447093E-03      0.7205573994E-03

    ------------------------------------------------
       NWT REQUIRED            5 OUTER ITERATIONS 
       AND A TOTAL OF          9 INNER ITERATIONS.
    ------------------------------------------------

 NO OUTPUT CONTROL FOR STRESS PERIOD   17   TIME STEP   13
 
 SOLVING FOR HEAD 
                                                   Max.-Head-Change                         Max.-Flux-Residual
  Residual-Control   Outer-Iter.   Inner-Iter.     Column Row Layer    Maximum-Head-Change  Column Row Layer    Maximum-Flux-Residual          L2-NORM 
          0                 1           2             4    7     1       0.5963405164E-02       4    7    1         0.3119586029E+00      0.8874228944E+00
          0                 2           2             4    7     1      -0.6031399043E-02       4    7    1        -0.3239537985E+00      0.7877257041E+00
          0                 3           2             4    7     1       0.5699123460E-02       4    7    1         0.3146253647E+00      0.7725099571E+00
          0                 4           2             4    7     1      -0.2244231745E-03       4    7    1        -0.1273483313E-01      0.3159283561E-01
          0                 5           1             2   13     1      -0.4907420881E-05       2   13    1        -0.2921752903E-03      0.8137695078E-03

    ------------------------------------------------
       NWT REQUIRED            5 OUTER ITERATIONS 
       AND A TOTAL OF          9 INNER ITERATIONS.
    ------------------------------------------------

 NO OUTPUT CONTROL FOR STRESS PERIOD   17   TIME STEP   14
 
 SOLVING FOR HEAD 
                                                   Max.-Head-Change                         Max.-Flux-Residual
  Residual-Control   Outer-Iter.   Inner-Iter.     Column Row Layer    Maximum-Head-Change  Column Row Layer    Maximum-Flux-Residual          L2-NORM 
          0                 1           2             4    7     1       0.5923380380E-02       4    7    1         0.3098569610E+00      0.8830183805E+00
          0                 2           2             4    7     1      -0.6046280468E-02       4    7    1        -0.3247519654E+00      0.7898637636E+00
          0                 3           2             4    7     1       0.5722316659E-02       4    7    1         0.3159057342E+00      0.7757043823E+00
          0                 4           2             4    7     1      -0.2259665001E-03       4    7    1        -0.1282240703E-01      0.3173694482E-01
          0                 5           1             3   13     1      -0.4381841611E-05       3   13    1        -0.2639416180E-03      0.6982481054E-03

    ------------------------------------------------
       NWT REQUIRED            5 OUTER ITERATIONS 
       AND A TOTAL OF          9 INNER ITERATIONS.
    ------------------------------------------------

 NO OUTPUT CONTROL FOR STRESS PERIOD   17   TIME STEP   15
 
 SOLVING FOR HEAD 
                                                   Max.-Head-Change                         Max.-Flux-Residual
  Residual-Control   Outer-Iter.   Inner-Iter.     Column Row Layer    Maximum-Head-Change  Column Row Layer    Maximum-Flux-Residual          L2-NORM 
          0                 1           2             4    7     1       0.5883693526E-02       4    7    1         0.3077732259E+00      0.8787837769E+00
          0                 2           2             4    7     1      -0.6050492262E-02       4    7    1        -0.3249771555E+00      0.7905894160E+00
          0                 3           2             4    7     1       0.5730945647E-02       4    7    1         0.3163820824E+00      0.7768775476E+00
          0                 4           2             4    7     1      -0.2263847879E-03       4    7    1        -0.1284614166E-01      0.3179600207E-01
          0                 5           1             3   13     1      -0.4336779849E-05       3   13    1        -0.2612468934E-03      0.6889708699E-03

    ------------------------------------------------
       NWT REQUIRED            5 OUTER ITERATIONS 
       AND A TOTAL OF          9 INNER ITERATIONS.
    ------------------------------------------------

 NO OUTPUT CONTROL FOR STRESS PERIOD   17   TIME STEP   16
 
 SOLVING FOR HEAD 
                                                   Max.-Head-Change                         Max.-Flux-Residual
  Residual-Control   Outer-Iter.   Inner-Iter.     Column Row Layer    Maximum-Head-Change  Column Row Layer    Maximum-Flux-Residual          L2-NORM 
          0                 1           2             4    7     1       0.5844497215E-02       4    7    1         0.3057153555E+00      0.8746894249E+00
          0                 2           2             4    7     1      -0.6053399956E-02       4    7    1        -0.3251323335E+00      0.7911359291E+00
          0                 3           2             4    7     1       0.5738059208E-02       4    7    1         0.3167747722E+00      0.7778888787E+00
          0                 4           2             4    7     1      -0.2267259673E-03       4    7    1        -0.1286550089E-01      0.3177406597E-01
          0                 5           1             4    7     1       0.4077228010E-05       4    7    1         0.2377897308E-03      0.6460303883E-03

    ------------------------------------------------
       NWT REQUIRED            5 OUTER ITERATIONS 
       AND A TOTAL OF          9 INNER ITERATIONS.
    ------------------------------------------------

 NO OUTPUT CONTROL FOR STRESS PERIOD   17   TIME STEP   17
 
 SOLVING FOR HEAD 
                                                   Max.-Head-Change                         Max.-Flux-Residual
  Residual-Control   Outer-Iter.   Inner-Iter.     Column Row Layer    Maximum-Head-Change  Column Row Layer    Maximum-Flux-Residual          L2-NORM 
          0                 1           2             4    7     1       0.5805645456E-02       4    7    1         0.3036755998E+00      0.8707146344E+00
          0                 2           2             4    7     1      -0.6058265687E-02       4    7    1        -0.3253926775E+00      0.7919351601E+00
          0                 3           2             4    7     1       0.5753767264E-02       4    7    1         0.3176419254E+00      0.7800177531E+00
          0                 4           2             4    7     1      -0.2284672430E-03       4    7    1        -0.1296430753E-01      0.3202704481E-01
          0                 5           1             4    7     1       0.3192517250E-05       4    7    1         0.1861924602E-03      0.5013571500E-03

    ------------------------------------------------
       NWT REQUIRED            5 OUTER ITERATIONS 
       AND A TOTAL OF          9 INNER ITERATIONS.
    ------------------------------------------------

 NO OUTPUT CONTROL FOR STRESS PERIOD   17   TIME STEP   18
 
 SOLVING FOR HEAD 
                                                   Max.-Head-Change                         Max.-Flux-Residual
  Residual-Control   Outer-Iter.   Inner-Iter.     Column Row Layer    Maximum-Head-Change  Column Row Layer    Maximum-Flux-Residual          L2-NORM 
          0                 1           2             4    7     1       0.5767097714E-02       4    7    1         0.3016518089E+00      0.8668344769E+00
          0                 2           2             4    7     1      -0.6029247190E-02       4    7    1        -0.3238333087E+00      0.7882625519E+00
          0                 3           2             4    7     1       0.5717408173E-02       4    7    1         0.3156346897E+00      0.7750971166E+00
          0                 4           2             4    7     1      -0.2254525634E-03       4    7    1        -0.1279324117E-01      0.3159166365E-01
          0                 5           1             4    7     1       0.4428767194E-05       4    7    1         0.2582918933E-03      0.7032743107E-03

    ------------------------------------------------
       NWT REQUIRED            5 OUTER ITERATIONS 
       AND A TOTAL OF          9 INNER ITERATIONS.
    ------------------------------------------------

 NO OUTPUT CONTROL FOR STRESS PERIOD   17   TIME STEP   19
 
 SOLVING FOR HEAD 
                                                   Max.-Head-Change                         Max.-Flux-Residual
  Residual-Control   Outer-Iter.   Inner-Iter.     Column Row Layer    Maximum-Head-Change  Column Row Layer    Maximum-Flux-Residual          L2-NORM 
          0                 1           2             4    7     1       0.5729080916E-02       4    7    1         0.2996559736E+00      0.8630384461E+00
          0                 2           2             4    7     1      -0.6044448818E-02       4    7    1        -0.3246487619E+00      0.7904117677E+00
          0                 3           2             4    7     1       0.5741331288E-02       4    7    1         0.3169553600E+00      0.7783433929E+00
          0                 4           2             4    7     1      -0.2271229713E-03       4    7    1        -0.1288802654E-01      0.3183182189E-01
          0                 5           1             4    7     1       0.3866137508E-05       4    7    1         0.2254787364E-03      0.6110766940E-03

    ------------------------------------------------
       NWT REQUIRED            5 OUTER ITERATIONS 
       AND A TOTAL OF          9 INNER ITERATIONS.
    ------------------------------------------------

 NO OUTPUT CONTROL FOR STRESS PERIOD   17   TIME STEP   20
 
 SOLVING FOR HEAD 
                                                   Max.-Head-Change                         Max.-Flux-Residual
  Residual-Control   Outer-Iter.   Inner-Iter.     Column Row Layer    Maximum-Head-Change  Column Row Layer    Maximum-Flux-Residual          L2-NORM 
          0                 1           2             4    7     1       0.5691369219E-02       4    7    1         0.2976761833E+00      0.8593122854E+00
          0                 2           2             4    7     1      -0.6046431032E-02       4    7    1        -0.3247542892E+00      0.7908133862E+00
          0                 3           2             4    7     1       0.5747346788E-02       4    7    1         0.3172874332E+00      0.7791636227E+00
          0                 4           2             4    7     1      -0.2274218580E-03       4    7    1        -0.1290498601E-01      0.3187520675E-01
          0                 5           1             4    7     1       0.3820085296E-05       4    7    1         0.2227929099E-03      0.6036029986E-03

    ------------------------------------------------
       NWT REQUIRED            5 OUTER ITERATIONS 
       AND A TOTAL OF          9 INNER ITERATIONS.
    ------------------------------------------------

 NO OUTPUT CONTROL FOR STRESS PERIOD   17   TIME STEP   21
 
 SOLVING FOR HEAD 
                                                   Max.-Head-Change                         Max.-Flux-Residual
  Residual-Control   Outer-Iter.   Inner-Iter.     Column Row Layer    Maximum-Head-Change  Column Row Layer    Maximum-Flux-Residual          L2-NORM 
          0                 1           2             4    7     1       0.5654121516E-02       4    7    1         0.2957207548E+00      0.8556559296E+00
          0                 2           2             4    7     1      -0.6047768046E-02       4    7    1        -0.3248251786E+00      0.7911260468E+00
          0                 3           2             4    7     1       0.5752547464E-02       4    7    1         0.3175745242E+00      0.7798735051E+00
          0                 4           2             4    7     1      -0.2276729161E-03       4    7    1        -0.1291923150E-01      0.3191079461E-01
          0                 5           1             4    7     1       0.3787069596E-05       4    7    1         0.2208674018E-03      0.5983709997E-03

    ------------------------------------------------
       NWT REQUIRED            5 OUTER ITERATIONS 
       AND A TOTAL OF          9 INNER ITERATIONS.
    ------------------------------------------------

 NO OUTPUT CONTROL FOR STRESS PERIOD   17   TIME STEP   22
 
 SOLVING FOR HEAD 
                                                   Max.-Head-Change                         Max.-Flux-Residual
  Residual-Control   Outer-Iter.   Inner-Iter.     Column Row Layer    Maximum-Head-Change  Column Row Layer    Maximum-Flux-Residual          L2-NORM 
          0                 1           2             4    7     1       0.5617187871E-02       4    7    1         0.2937820594E+00      0.8520372860E+00
          0                 2           2             4    7     1      -0.6048560701E-02       4    7    1        -0.3248668660E+00      0.7913615691E+00
          0                 3           2             4    7     1       0.5757078377E-02       4    7    1         0.3178246426E+00      0.7804926129E+00
          0                 4           2             4    7     1      -0.2278868193E-03       4    7    1        -0.1293136875E-01      0.3194115355E-01
          0                 5           1             4    7     1       0.3763134714E-05       4    7    1         0.2194715044E-03      0.5942411342E-03

    ------------------------------------------------
       NWT REQUIRED            5 OUTER ITERATIONS 
       AND A TOTAL OF          9 INNER ITERATIONS.
    ------------------------------------------------

 NO OUTPUT CONTROL FOR STRESS PERIOD   17   TIME STEP   23
 
 SOLVING FOR HEAD 
                                                   Max.-Head-Change                         Max.-Flux-Residual
  Residual-Control   Outer-Iter.   Inner-Iter.     Column Row Layer    Maximum-Head-Change  Column Row Layer    Maximum-Flux-Residual          L2-NORM 
          0                 1           2             4    7     1       0.5580572750E-02       4    7    1         0.2918596692E+00      0.8484745550E+00
          0                 2           2             4    7     1      -0.6048912095E-02       4    7    1        -0.3248848222E+00      0.7915360071E+00
          0                 3           2             4    7     1       0.5761066577E-02       4    7    1         0.3180447976E+00      0.7810382534E+00
          0                 4           2             4    7     1      -0.2280693243E-03       4    7    1        -0.1294172423E-01      0.3196692698E-01
          0                 5           1             4    7     1       0.3744945185E-05       4    7    1         0.2184106702E-03      0.5913731303E-03

    ------------------------------------------------
       NWT REQUIRED            5 OUTER ITERATIONS 
       AND A TOTAL OF          9 INNER ITERATIONS.
    ------------------------------------------------

 NO OUTPUT CONTROL FOR STRESS PERIOD   17   TIME STEP   24
 
 SOLVING FOR HEAD 
                                                   Max.-Head-Change                         Max.-Flux-Residual
  Residual-Control   Outer-Iter.   Inner-Iter.     Column Row Layer    Maximum-Head-Change  Column Row Layer    Maximum-Flux-Residual          L2-NORM 
          0                 1           2             4    7     1       0.5544540720E-02       4    7    1         0.2899685160E+00      0.8449480108E+00
          0                 2           2             4    7     1      -0.6048844082E-02       4    7    1        -0.3248803318E+00      0.7916484625E+00
          0                 3           2             4    7     1       0.5764498978E-02       4    7    1         0.3182342744E+00      0.7815114264E+00
          0                 4           2             4    7     1      -0.2282206086E-03       4    7    1        -0.1295030830E-01      0.3198372710E-01
          0                 5           1             4    7     1       0.3735227001E-05       4    7    1         0.2178438940E-03      0.5870558758E-03

    ------------------------------------------------
       NWT REQUIRED            5 OUTER ITERATIONS 
       AND A TOTAL OF          9 INNER ITERATIONS.
    ------------------------------------------------

 NO OUTPUT CONTROL FOR STRESS PERIOD   17   TIME STEP   25
 
 SOLVING FOR HEAD 
                                                   Max.-Head-Change                         Max.-Flux-Residual
  Residual-Control   Outer-Iter.   Inner-Iter.     Column Row Layer    Maximum-Head-Change  Column Row Layer    Maximum-Flux-Residual          L2-NORM 
          0                 1           2             4    7     1       0.5508669146E-02       4    7    1         0.2880855540E+00      0.8414550560E+00
          0                 2           2             4    7     1      -0.6046508122E-02       4    7    1        -0.3247540239E+00      0.7914597259E+00
          0                 3           2             4    7     1       0.5765696567E-02       4    7    1         0.3183003758E+00      0.7816785803E+00
          0                 4           2             4    7     1      -0.2283053769E-03       4    7    1        -0.1295511792E-01      0.3199601015E-01
          0                 5           1             4    7     1       0.3705611959E-05       4    7    1         0.2161167117E-03      0.5793258423E-03

    ------------------------------------------------
       NWT REQUIRED            5 OUTER ITERATIONS 
       AND A TOTAL OF          9 INNER ITERATIONS.
    ------------------------------------------------

 NO OUTPUT CONTROL FOR STRESS PERIOD   17   TIME STEP   26
 
 SOLVING FOR HEAD 
                                                   Max.-Head-Change                         Max.-Flux-Residual
  Residual-Control   Outer-Iter.   Inner-Iter.     Column Row Layer    Maximum-Head-Change  Column Row Layer    Maximum-Flux-Residual          L2-NORM 
          0                 1           2             4    7     1       0.5473237108E-02       4    7    1         0.2862255778E+00      0.8379959284E+00
          0                 2           2             4    7     1      -0.6044489062E-02       4    7    1        -0.3246447369E+00      0.7913089132E+00
          0                 3           2             4    7     1       0.5767192503E-02       4    7    1         0.3183829473E+00      0.7818862195E+00
          0                 4           2             4    7     1      -0.2284041176E-03       4    7    1        -0.1296072036E-01      0.3201028487E-01
          0                 5           1             4    7     1       0.3675488817E-05       4    7    1         0.2143598899E-03      0.5767360592E-03

    ------------------------------------------------
       NWT REQUIRED            5 OUTER ITERATIONS 
       AND A TOTAL OF          9 INNER ITERATIONS.
    ------------------------------------------------

 NO OUTPUT CONTROL FOR STRESS PERIOD   17   TIME STEP   27
 
 SOLVING FOR HEAD 
                                                   Max.-Head-Change                         Max.-Flux-Residual
  Residual-Control   Outer-Iter.   Inner-Iter.     Column Row Layer    Maximum-Head-Change  Column Row Layer    Maximum-Flux-Residual          L2-NORM 
          0                 1           2             4    7     1       0.5438096003E-02       4    7    1         0.2843810345E+00      0.8345675497E+00
          0                 2           2             4    7     1      -0.6049060972E-02       4    7    1        -0.3248894356E+00      0.7920239414E+00
          0                 3           2             4    7     1       0.5781875764E-02       4    7    1         0.3191935332E+00      0.7838773989E+00
          0                 4           2             4    7     1      -0.2300667993E-03       4    7    1        -0.1305506763E-01      0.3225179942E-01
          0                 5           1             4    7     1       0.2836822652E-05       4    7    1         0.1654478992E-03      0.4404716844E-03

    ------------------------------------------------
       NWT REQUIRED            5 OUTER ITERATIONS 
       AND A TOTAL OF          9 INNER ITERATIONS.
    ------------------------------------------------

 NO OUTPUT CONTROL FOR STRESS PERIOD   17   TIME STEP   28
 
 SOLVING FOR HEAD 
                                                   Max.-Head-Change                         Max.-Flux-Residual
  Residual-Control   Outer-Iter.   Inner-Iter.     Column Row Layer    Maximum-Head-Change  Column Row Layer    Maximum-Flux-Residual          L2-NORM 
          0                 1           2             4    7     1       0.5403343463E-02       4    7    1         0.2825571052E+00      0.8311564905E+00
          0                 2           2             4    7     1      -0.6039104747E-02       4    7    1        -0.3243539442E+00      0.7908190432E+00
          0                 3           2             4    7     1       0.5768886352E-02       4    7    1         0.3184764368E+00      0.7821251487E+00
          0                 4           2             4    7     1      -0.2285814604E-03       4    7    1        -0.1297078272E-01      0.3203615835E-01
          0                 5           1             4    7     1       0.3588419237E-05       4    7    1         0.2092819009E-03      0.5630050796E-03

    ------------------------------------------------
       NWT REQUIRED            5 OUTER ITERATIONS 
       AND A TOTAL OF          9 INNER ITERATIONS.
    ------------------------------------------------

 NO OUTPUT CONTROL FOR STRESS PERIOD   17   TIME STEP   29
 
 SOLVING FOR HEAD 
                                                   Max.-Head-Change                         Max.-Flux-Residual
  Residual-Control   Outer-Iter.   Inner-Iter.     Column Row Layer    Maximum-Head-Change  Column Row Layer    Maximum-Flux-Residual          L2-NORM 
          0                 1           2             4    7     1       0.5369017752E-02       4    7    1         0.2807569155E+00      0.8123510701E+00
          0                 2           2             4    7     1      -0.6045731001E-02       4    7    1        -0.3247091447E+00      0.7904797920E+00
          0                 3           2             4    7     1       0.5784946297E-02       4    7    1         0.3193630349E+00      0.7841858199E+00
          0                 4           2             4    7     1      -0.2301889791E-03       4    7    1        -0.1306200031E-01      0.3255702192E-01
          0                 5           1             4   13     1      -0.4193013617E-05       4   13    1        -0.2540405649E-03      0.5797908321E-03

    ------------------------------------------------
       NWT REQUIRED            5 OUTER ITERATIONS 
       AND A TOTAL OF          9 INNER ITERATIONS.
    ------------------------------------------------

 NO OUTPUT CONTROL FOR STRESS PERIOD   17   TIME STEP   30



 STREAM LISTING     PERIOD     17   STEP       30

 LAYER ROW COL. STREAM  RCH.  FLOW INTO     FLOW TO   FLOW OUT OF   OVRLND.     DIRECT     STREAM       STREAM     STREAM     STREAM   STREAMBED  STREAMBED
                SEG.NO.  NO.  STRM. RCH.    AQUIFER    STRM. RCH.    RUNOFF     PRECIP       ET          HEAD       DEPTH      WIDTH   CONDCTNC.   GRADIENT

   1    1    1     1     1    2.4716E+01  2.4383E-01   2.4472E+01  0.000E+00  0.000E+00  0.000E+00  1.09422E+03  1.174E+00  1.298E+01  5.842E-02  1.391E+00
   1    2    2     1     2    2.4472E+01  3.7705E-01   2.4095E+01  0.000E+00  0.000E+00  0.000E+00  1.08923E+03  1.169E+00  1.292E+01  9.043E-02  1.390E+00
   1    3    3     1     3    2.4095E+01  3.2100E-01   2.3774E+01  0.000E+00  0.000E+00  0.000E+00  1.08358E+03  1.164E+00  1.285E+01  7.709E-02  1.388E+00
   1    3    4     1     4    2.3774E+01  2.9513E-01   2.3479E+01  0.000E+00  0.000E+00  0.000E+00  1.07857E+03  1.159E+00  1.278E+01  7.096E-02  1.386E+00
   1    4    5     2     1    2.1479E+01  3.1960E-01   2.1159E+01  0.000E+00  0.000E+00  0.000E+00  1.07303E+03  1.097E+00  1.200E+01  7.800E-02  1.366E+00
   1    5    6     2     2    2.1159E+01  2.4532E-01   2.0914E+01  0.000E+00  0.000E+00  0.000E+00  1.06760E+03  1.089E+00  1.200E+01  6.000E-02  1.363E+00
   1    6    6     2     3    2.0914E+01  2.4487E-01   2.0669E+01  0.000E+00  0.000E+00  0.000E+00  1.06287E+03  1.081E+00  1.200E+01  6.000E-02  1.360E+00
   1    7    6     2     4    2.0669E+01  2.4441E-01   2.0424E+01  0.000E+00  0.000E+00  0.000E+00  1.05815E+03  1.073E+00  1.200E+01  6.000E-02  1.358E+00
   1    8    6     2     5    2.0424E+01  2.4395E-01   2.0180E+01  0.000E+00  0.000E+00  0.000E+00  1.05342E+03  1.066E+00  1.200E+01  6.000E-02  1.355E+00
   1    3    5     3     1    2.0000E+00  2.8252E-01   1.7175E+00  0.000E+00  0.000E+00  0.000E+00  1.07555E+03  1.909E+00  9.636E+00  7.227E-02  1.955E+00
   1    3    6     3     2    1.7175E+00  2.4905E-01   1.4684E+00  0.000E+00  0.000E+00  0.000E+00  1.07264E+03  1.727E+00  8.909E+00  6.682E-02  1.864E+00
   1    3    7     3     3    1.4684E+00  1.9718E-01   1.2712E+00  0.000E+00  0.000E+00  0.000E+00  1.06987E+03  1.555E+00  8.218E+00  5.547E-02  1.777E+00
   1    4    8     3     4    1.2712E+00  2.2567E-01   1.0456E+00  0.000E+00  0.000E+00  0.000E+00  1.06682E+03  1.364E+00  7.455E+00  6.709E-02  1.682E+00
   1    5    8     3     5    1.0456E+00  1.5790E-01   8.8768E-01  0.000E+00  0.000E+00  0.000E+00  1.06362E+03  1.164E+00  6.655E+00  4.991E-02  1.582E+00
   1    6    8     3     6    8.8768E-01  5.5980E-02   8.3170E-01  0.000E+00  0.000E+00  0.000E+00  1.06158E+03  1.036E+00  6.145E+00  1.844E-02  1.518E+00
   1    5   10     4     1    1.0000E+01  9.0919E-02   9.9091E+00  0.000E+00  0.000E+00  0.000E+00  1.07836E+03  6.368E-01  1.000E+01  2.500E-02  1.212E+00
   1    5    9     4     2    9.9091E+00  1.8158E-01   9.7275E+00  0.000E+00  0.000E+00  0.000E+00  1.07154E+03  6.315E-01  1.000E+01  5.000E-02  1.211E+00
   1    6    8     4     3    9.7275E+00  1.2689E-01   9.6006E+00  0.000E+00  0.000E+00  0.000E+00  1.06381E+03  6.256E-01  1.000E+01  3.500E-02  1.209E+00
   1    6    8     5     1    1.0432E+01  2.2686E-01   1.0205E+01  0.000E+00  0.000E+00  0.000E+00  1.05868E+03  6.790E-01  1.542E+01  6.166E-02  1.226E+00
   1    7    7     5     2    1.0205E+01  2.7894E-01   9.9265E+00  0.000E+00  0.000E+00  0.000E+00  1.05417E+03  6.732E-01  1.519E+01  7.594E-02  1.224E+00
   1    8    7     5     3    9.9265E+00  1.9221E-01   9.7343E+00  0.000E+00  0.000E+00  0.000E+00  1.04992E+03  6.676E-01  1.497E+01  5.241E-02  1.223E+00
   1    8    6     5     4    9.7343E+00  1.3577E-01   9.5985E+00  0.000E+00  0.000E+00  0.000E+00  1.04691E+03  6.637E-01  1.482E+01  3.706E-02  1.221E+00
   1    9    6     6     1    2.6219E+01  2.5517E-01   2.5964E+01  0.000E+00  0.000E+00  0.000E+00  1.04398E+03  1.253E+00  1.200E+01  6.000E-02  1.418E+00
   1   10    7     6     2    2.5964E+01  2.5472E-01   2.5710E+01  0.000E+00  0.000E+00  0.000E+00  1.03943E+03  1.245E+00  1.200E+01  6.000E-02  1.415E+00
   1   11    7     6     3    2.5710E+01  2.5428E-01   2.5455E+01  0.000E+00  0.000E+00  0.000E+00  1.03487E+03  1.238E+00  1.200E+01  6.000E-02  1.413E+00
   1   12    7     6     4    2.5455E+01  2.5384E-01   2.5201E+01  0.000E+00  0.000E+00  0.000E+00  1.03032E+03  1.231E+00  1.200E+01  6.000E-02  1.410E+00
   1   13    7     6     5    2.5201E+01  8.2734E-03   2.5193E+01  0.000E+00  0.000E+00  0.000E+00  1.02714E+03  1.227E+00  1.200E+01  2.400E-02  1.149E-01
   1   14    9     7     1    1.5000E+02  1.3712E+00   1.4863E+02  0.000E+00  0.000E+00  0.000E+00  1.03987E+03  2.288E+00  5.529E+01  5.593E-01  8.172E-01
   1   13    8     7     2    1.4863E+02  1.9315E+00   1.4670E+02  0.000E+00  0.000E+00  0.000E+00  1.03478E+03  2.279E+00  5.525E+01  6.148E-01  1.047E+00
   1   13    7     7     3    1.4670E+02  1.6180E+00   1.4508E+02  0.000E+00  0.000E+00  0.000E+00  1.02969E+03  2.269E+00  5.521E+01  5.584E-01  9.658E-01
   1   13    6     8     1    1.7027E+02  1.0559E+00   1.6922E+02  0.000E+00  0.000E+00  0.000E+00  1.02483E+03  2.951E+00  4.278E+01  4.360E-01  8.074E-01
   1   13    5     8     2    1.6922E+02  2.9125E-01   1.6893E+02  0.000E+00  0.000E+00  0.000E+00  1.01857E+03  2.946E+00  4.272E+01  4.353E-01  2.230E-01
   1   13    4     8     3    1.6893E+02 -2.1169E+00   1.7104E+02  0.000E+00  0.000E+00  0.000E+00  1.01233E+03  2.952E+00  4.281E+01  4.362E+00 -1.618E-01
   1   13    3     8     4    1.7104E+02 -3.5274E+00   1.7457E+02  0.000E+00  0.000E+00  0.000E+00  1.00610E+03  2.970E+00  4.307E+01  4.389E+00 -2.679E-01
   1   13    2     8     5    1.7457E+02 -2.6053E+00   1.7717E+02  0.000E+00  0.000E+00  0.000E+00  9.99865E+02  2.990E+00  4.336E+01  4.418E+00 -1.966E-01
   1   13    1     8     6    1.7717E+02 -2.0176E+00   1.7919E+02  0.000E+00  0.000E+00  0.000E+00  9.94880E+02  3.005E+00  4.357E+01  2.664E+00 -2.525E-01
   1    8    6     9     1    3.5596E+00  0.0000E+00   3.5596E+00  0.000E+00  0.000E+00  0.000E+00  1.07997E+03  1.219E+00  4.000E+00  0.000E+00  1.406E+00
   1    8    5     9     2    3.5596E+00  0.0000E+00   3.5596E+00  0.000E+00  0.000E+00  0.000E+00  1.07947E+03  1.219E+00  4.000E+00  0.000E+00  1.406E+00





UNSATURATED ZONE PACKAGE VOLUMETRIC BUDGET FOR  TIME STEP    30 STRESS PERIOD   17
  ------------------------------------------------------------------------------



     CUMULATIVE VOLUMES      L**3       RATES FOR THIS TIME STEP      L**3/T
     ------------------                 ------------------------

           IN:                                      IN:
           ---                                      ---
        INFILTRATION =   677656345.5564          INFILTRATION =           7.9672

          OUT:                                     OUT:
          ----                                     ----
              UZF ET =   536448945.4644                UZF ET =           7.8607
        UZF RECHARGE =      167968.6155          UZF RECHARGE =       0.0000E+00

            IN - OUT =   141039431.4765              IN - OUT =           0.1064

          STORAGE:                                 STORAGE:
          --------                                 --------
      STORAGE CHANGE =   141039422.9021        STORAGE CHANGE =           0.1064

 PERCENT DISCREPANCY IS DIFFERENCE BETWEEN IN-OUT MINUS CHANGE IN STORAGE
 DIVIDED BY THE AVERAGE OF IN AND OUT TIMES 100

 PERCENT DISCREPANCY =           0.00     PERCENT DISCREPANCY =           0.00






1
  VOLUMETRIC BUDGET FOR AGRICULTURAL FIELDS AT  END OF TIME STEP   30, STRESS PERIOD  17
  ------------------------------------------------------------------------------

     CUMULATIVE VOLUMES      L**3       RATES FOR THIS TIME STEP      L**3/T
     ------------------                 ------------------------

           IN:                                      IN:
           ---                                      ---
               AG WELLS  =   266627504.0000                 AG WELLS  =           0.0000
      DIVERSION SEGMENTS =   225612992.0000        DIVERSION SEGMENTS =           3.5596
           GW IRRIGATION =           0.0000             GW IRRIGATION =           0.0000
           SW IRRIGATION =           0.0000             SW IRRIGATION =           0.0000
        SYSTEM LOSSES GW =           0.0000          SYSTEM LOSSES GW =           0.0000
        SYSTEM LOSSES SW =           0.0000          SYSTEM LOSSES SW =           0.0000

                TOTAL IN =   492240512.0000                  TOTAL IN =           3.5596

          OUT:                                     OUT:
          ----                                     ----
               AG WELLS  =           0.0000                 AG WELLS  =           0.0000
      DIVERSION SEGMENTS =           0.0000        DIVERSION SEGMENTS =           0.0000
           GW IRRIGATION =   266627504.0000             GW IRRIGATION =           0.0000
           SW IRRIGATION =   225617472.0000             SW IRRIGATION =           3.5597
        SYSTEM LOSSES GW =           0.0000          SYSTEM LOSSES GW =           0.0000
        SYSTEM LOSSES SW =           0.0000          SYSTEM LOSSES SW =           0.0000

               TOTAL OUT =   492244992.0000                 TOTAL OUT =           3.5597

                IN - OUT =       -4480.0000                  IN - OUT =      -7.1287E-05

     PERCENT DISCREPANCY =          -0.00         PERCENT DISCREPANCY =          -0.00



1
  VOLUMETRIC BUDGET FOR ENTIRE MODEL AT END OF TIME STEP   30, STRESS PERIOD  17
  ------------------------------------------------------------------------------

     CUMULATIVE VOLUMES      L**3       RATES FOR THIS TIME STEP      L**3/T
     ------------------                 ------------------------

           IN:                                      IN:
           ---                                      ---
             STORAGE     =   420400032.0000               STORAGE     =           1.9094
       CONSTANT HEAD     =           0.0000         CONSTANT HEAD     =           0.0000
     HEAD DEP BOUNDS     =    12143043.0000       HEAD DEP BOUNDS     =           0.2882
      STREAM LEAKAGE     =   495932128.0000        STREAM LEAKAGE     =          12.2308
        UZF RECHARGE     =      167968.5625          UZF RECHARGE     =           0.0000
               GW ET     =           0.0000                 GW ET     =           0.0000
     SURFACE LEAKAGE     =           0.0000       SURFACE LEAKAGE     =           0.0000
           AG WELLS      =           0.0000             AG WELLS      =           0.0000

                TOTAL IN =   928643200.0000                  TOTAL IN =          14.4284

          OUT:                                     OUT:
          ----                                     ----
             STORAGE     =   218386960.0000               STORAGE     =           3.8710
       CONSTANT HEAD     =           0.0000         CONSTANT HEAD     =           0.0000
     HEAD DEP BOUNDS     =    12150269.0000       HEAD DEP BOUNDS     =           0.2902
      STREAM LEAKAGE     =   431484960.0000        STREAM LEAKAGE     =          10.2671
        UZF RECHARGE     =           0.0000          UZF RECHARGE     =           0.0000
               GW ET     =           0.0000                 GW ET     =           0.0000
     SURFACE LEAKAGE     =           0.0000       SURFACE LEAKAGE     =           0.0000
           AG WELLS      =   266627504.0000             AG WELLS      =           0.0000

               TOTAL OUT =   928649728.0000                 TOTAL OUT =          14.4283

                IN - OUT =       -6528.0000                  IN - OUT =       5.6267E-05

     PERCENT DISCREPANCY =          -0.00         PERCENT DISCREPANCY =           0.00






         TIME SUMMARY AT END OF TIME STEP   30 IN STRESS PERIOD   17
                    SECONDS     MINUTES      HOURS       DAYS        YEARS
                    -----------------------------------------------------------
   TIME STEP LENGTH  87667.      1461.1      24.352      1.0147     2.77799E-03
 STRESS PERIOD TIME 2.63000E+06  43833.      730.56      30.440     8.33397E-02
         TOTAL TIME 4.21664E+07 7.02774E+05  11713.      488.04      1.3362    
1
1
                            STRESS PERIOD NO.   18, LENGTH =   2630000.    
                            -----------------------------------------------

                              NUMBER OF TIME STEPS =    30

                               MULTIPLIER FOR DELT =     1.000

                            INITIAL TIME STEP SIZE =   87666.66    

 REUSING NON-PARAMETER GHB CELLS FROM LAST STRESS PERIOD

      2 GHB CELLS

 REUSING STREAM SEGMENT DATA FROM LAST STRESS PERIOD



            AREAL INFILTRATION RATE
 READING ON UNIT   19 WITH FORMAT: (10F4.0)            

            1           2           3           4           5           6           7           8           9          10
 ........................................................................................................................
   1   1.2000E-09   0.000       0.000       0.000       0.000       0.000       0.000       0.000       0.000       0.000    
   2   2.1000E-09  2.0000E-09  8.0000E-10  8.5000E-09   0.000       0.000       0.000       0.000       0.000       0.000    
   3   5.0000E-10  1.1000E-09  8.8000E-09  5.5000E-09   0.000       0.000       0.000       0.000       0.000       0.000    
   4   8.5000E-09  1.1000E-09  1.1000E-09  1.1000E-09  2.0000E-09   0.000       0.000       0.000       0.000       0.000    
   5   8.5000E-09  1.1000E-09  1.1000E-09  1.1000E-09  1.1000E-09   0.000       0.000       0.000       0.000       0.000    
   6   8.5000E-09  5.2000E-09  2.1000E-09  1.1000E-09  1.5000E-09   0.000       0.000       0.000       0.000       0.000    
   7   8.5000E-09  5.2000E-09  2.1000E-09  1.2000E-09  2.0000E-09   0.000       0.000       0.000       0.000       0.000    
   8   5.0000E-10  5.2000E-09  2.1000E-09  1.2000E-09  5.0000E-09   0.000       0.000       0.000       0.000       0.000    
   9   5.0000E-10  5.2000E-09  2.1000E-09  1.2000E-09  5.0000E-09   0.000       0.000       0.000       0.000       0.000    
  10   5.0000E-10  5.2000E-09  2.1000E-09  1.2000E-09  5.8000E-09   0.000       0.000       0.000       0.000       0.000    
  11   1.0000E-10  1.1000E-09  1.1000E-09  1.2000E-09  5.0000E-09   0.000       0.000       0.000       0.000       0.000    
  12   1.1000E-09  1.1000E-09  1.1000E-09  1.1000E-09  2.0000E-09   0.000       0.000       0.000       0.000       0.000    
  13   1.1000E-09  2.2000E-09  2.2000E-09  2.1000E-09  1.0000E-09   0.000       0.000       0.000       0.000       0.000    
  14   2.0000E-10  5.5000E-09  5.5000E-09  5.2000E-09  1.0000E-09   0.000       0.000       0.000       0.000       0.000    
  15    0.000      8.8000E-09  8.8000E-09   0.000       0.000       0.000       0.000       0.000       0.000       0.000    

                  ET RATE =  5.000000E-08

 USING ET EXTINCTION DEPTH FROM PREVIOUS STRESS PERIOD. CURRENT PERIOD IS:      18

 USING EXTINCTION WATER CONTENT FROM PREVIOUS STRESS PERIOD. CURRENT PERIOD IS:      18

 USING AIR ENTRY PRESSURE FROM PREVIOUS STRESS PERIOD. CURRENT PERIOD IS:      18

 USING ROOT PRESSURE HEAD FROM PREVIOUS STRESS PERIOD. CURRENT PERIOD IS:      18

 USING ROOT ACTIVITY FROM PREVIOUS STRESS PERIOD. CURRENT PERIOD IS:      18

 PROCESSING AG STRESS PERIOD DATA

 READING AG STRESS PERIOD DATA

 READING IRRIGATION SEGMENT

 READING IRRIGATION WELL

 READING SUPPLEMENTAL WELL

 END PROCESSING AG STRESS PERIOD DATA OPTIONS
 
 SOLVING FOR HEAD 
                                                   Max.-Head-Change                         Max.-Flux-Residual
  Residual-Control   Outer-Iter.   Inner-Iter.     Column Row Layer    Maximum-Head-Change  Column Row Layer    Maximum-Flux-Residual          L2-NORM 
          0                 1           2             4    7     1       0.5334899511E-02       4    7    1         0.2789681070E+00      0.8073477034E+00
          0                 2           2             4    7     1      -0.1182266929E-01       4    7    1        -0.6349542336E+00      0.1552743700E+01
          0                 3           2             4    7     1       0.1178993148E-01       4    7    1         0.6508713823E+00      0.1598861852E+01
          0                 4           2             4    7     1      -0.4672509771E-03       4    7    1        -0.2651392664E-01      0.6609581101E-01
          0                 5           1             4   13     1      -0.9654596325E-05       4   13    1        -0.5845141941E-03      0.1412732892E-02

    ------------------------------------------------
       NWT REQUIRED            5 OUTER ITERATIONS 
       AND A TOTAL OF          9 INNER ITERATIONS.
    ------------------------------------------------

 NO OUTPUT CONTROL FOR STRESS PERIOD   18   TIME STEP    1
 
 SOLVING FOR HEAD 
                                                   Max.-Head-Change                         Max.-Flux-Residual
  Residual-Control   Outer-Iter.   Inner-Iter.     Column Row Layer    Maximum-Head-Change  Column Row Layer    Maximum-Flux-Residual          L2-NORM 
          0                 1           2             4    7     1       0.5301090236E-02       4    7    1         0.2771950560E+00      0.8022166733E+00
          0                 2           2             4    7     1      -0.1174968455E-01       4    7    1        -0.6310340544E+00      0.1543411906E+01
          0                 3           2             4    7     1       0.1169005937E-01       4    7    1         0.6453579417E+00      0.1585333092E+01
          0                 4           2             4    7     1      -0.4588960379E-03       4    7    1        -0.2603983316E-01      0.6487260940E-01
          0                 5           1             4   13     1      -0.1225096791E-04       4   13    1        -0.7416692824E-03      0.1959406443E-02

    ------------------------------------------------
       NWT REQUIRED            5 OUTER ITERATIONS 
       AND A TOTAL OF          9 INNER ITERATIONS.
    ------------------------------------------------

 NO OUTPUT CONTROL FOR STRESS PERIOD   18   TIME STEP    2
 
 SOLVING FOR HEAD 
                                                   Max.-Head-Change                         Max.-Flux-Residual
  Residual-Control   Outer-Iter.   Inner-Iter.     Column Row Layer    Maximum-Head-Change  Column Row Layer    Maximum-Flux-Residual          L2-NORM 
          0                 1           2             4    7     1       0.5267815944E-02       4    7    1         0.2754498690E+00      0.7980209299E+00
          0                 2           2             4    7     1      -0.1176991435E-01       4    7    1        -0.6321198755E+00      0.1546376839E+01
          0                 3           2             4    7     1       0.1171742224E-01       4    7    1         0.6468685729E+00      0.1589161315E+01
          0                 4           2             4    7     1      -0.4604862385E-03       4    7    1        -0.2613007003E-01      0.6490534333E-01
          0                 5           1             2   13     1      -0.1053901369E-04       2   13    1        -0.6258040448E-03      0.1809067885E-02

    ------------------------------------------------
       NWT REQUIRED            5 OUTER ITERATIONS 
       AND A TOTAL OF          9 INNER ITERATIONS.
    ------------------------------------------------

 NO OUTPUT CONTROL FOR STRESS PERIOD   18   TIME STEP    3
 
 SOLVING FOR HEAD 
                                                   Max.-Head-Change                         Max.-Flux-Residual
  Residual-Control   Outer-Iter.   Inner-Iter.     Column Row Layer    Maximum-Head-Change  Column Row Layer    Maximum-Flux-Residual          L2-NORM 
          0                 1           2             4    7     1       0.5234768661E-02       4    7    1         0.2737163595E+00      0.7945554901E+00
          0                 2           2             4    7     1      -0.1177583892E-01       4    7    1        -0.6324374280E+00      0.1547439489E+01
          0                 3           2             4    7     1       0.1175018005E-01       4    7    1         0.6486770335E+00      0.1593773941E+01
          0                 4           2             4    7     1      -0.4656005889E-03       4    7    1        -0.2642028254E-01      0.6535301846E-01
          0                 5           1             4    7     1       0.7294501771E-05       4    7    1         0.4254252212E-03      0.1177791877E-02

    ------------------------------------------------
       NWT REQUIRED            5 OUTER ITERATIONS 
       AND A TOTAL OF          9 INNER ITERATIONS.
    ------------------------------------------------

 NO OUTPUT CONTROL FOR STRESS PERIOD   18   TIME STEP    4
 
 SOLVING FOR HEAD 
                                                   Max.-Head-Change                         Max.-Flux-Residual
  Residual-Control   Outer-Iter.   Inner-Iter.     Column Row Layer    Maximum-Head-Change  Column Row Layer    Maximum-Flux-Residual          L2-NORM 
          0                 1           2             4    7     1       0.5201963464E-02       4    7    1         0.2719961524E+00      0.7916468937E+00
          0                 2           2             4    7     1      -0.1177653959E-01       4    7    1        -0.6324744999E+00      0.1547794307E+01
          0                 3           2             4    7     1       0.1176595497E-01       4    7    1         0.6495479490E+00      0.1595906232E+01
          0                 4           2             4    7     1      -0.4681806494E-03       4    7    1        -0.2656668859E-01      0.6573020014E-01
          0                 5           1             4    7     1       0.5772866365E-05       4    7    1         0.3366815895E-03      0.9319854664E-03

    ------------------------------------------------
       NWT REQUIRED            5 OUTER ITERATIONS 
       AND A TOTAL OF          9 INNER ITERATIONS.
    ------------------------------------------------

 NO OUTPUT CONTROL FOR STRESS PERIOD   18   TIME STEP    5
 
 SOLVING FOR HEAD 
                                                   Max.-Head-Change                         Max.-Flux-Residual
  Residual-Control   Outer-Iter.   Inner-Iter.     Column Row Layer    Maximum-Head-Change  Column Row Layer    Maximum-Flux-Residual          L2-NORM 
          0                 1           2             4    7     1       0.5169323087E-02       4    7    1         0.2702844485E+00      0.7891725445E+00
          0                 2           2             4    7     1      -0.1177820967E-01       4    7    1        -0.6325636226E+00      0.1548264119E+01
          0                 3           2             4    7     1       0.1177078203E-01       4    7    1         0.6498144810E+00      0.1596564168E+01
          0                 4           2             4    7     1      -0.4683727253E-03       4    7    1        -0.2657758988E-01      0.6575703516E-01
          0                 5           1             4    7     1       0.5775235031E-05       4    7    1         0.3368197736E-03      0.9315585715E-03

    ------------------------------------------------
       NWT REQUIRED            5 OUTER ITERATIONS 
       AND A TOTAL OF          9 INNER ITERATIONS.
    ------------------------------------------------

 NO OUTPUT CONTROL FOR STRESS PERIOD   18   TIME STEP    6
 
 SOLVING FOR HEAD 
                                                   Max.-Head-Change                         Max.-Flux-Residual
  Residual-Control   Outer-Iter.   Inner-Iter.     Column Row Layer    Maximum-Head-Change  Column Row Layer    Maximum-Flux-Residual          L2-NORM 
          0                 1           2             4    7     1       0.5137047473E-02       4    7    1         0.2685920745E+00      0.7870464094E+00
          0                 2           2             4    7     1      -0.1177922935E-01       4    7    1        -0.6326178426E+00      0.1548634586E+01
          0                 3           2             4    7     1       0.1174593899E-01       4    7    1         0.6484430581E+00      0.1593223427E+01
          0                 4           2             4    7     1      -0.4626629613E-03       4    7    1        -0.2625359492E-01      0.6491900447E-01
          0                 5           1             4    7     1       0.9501240411E-05       4    7    1         0.5541250957E-03      0.1535243299E-02

    ------------------------------------------------
       NWT REQUIRED            5 OUTER ITERATIONS 
       AND A TOTAL OF          9 INNER ITERATIONS.
    ------------------------------------------------

 NO OUTPUT CONTROL FOR STRESS PERIOD   18   TIME STEP    7
 
 SOLVING FOR HEAD 
                                                   Max.-Head-Change                         Max.-Flux-Residual
  Residual-Control   Outer-Iter.   Inner-Iter.     Column Row Layer    Maximum-Head-Change  Column Row Layer    Maximum-Flux-Residual          L2-NORM 
          0                 1           2             4    7     1       0.5105163341E-02       4    7    1         0.2669195701E+00      0.7851925889E+00
          0                 2           2             4    7     1      -0.1177651024E-01       4    7    1        -0.6324712149E+00      0.1548504109E+01
          0                 3           2             4    7     1       0.1174612723E-01       4    7    1         0.6484534970E+00      0.1593252436E+01
          0                 4           2             4    7     1      -0.4626690532E-03       4    7    1        -0.2625394248E-01      0.6491972162E-01
          0                 5           1             4    7     1       0.9499953585E-05       4    7    1         0.5540500988E-03      0.1535003694E-02

    ------------------------------------------------
       NWT REQUIRED            5 OUTER ITERATIONS 
       AND A TOTAL OF          9 INNER ITERATIONS.
    ------------------------------------------------

 NO OUTPUT CONTROL FOR STRESS PERIOD   18   TIME STEP    8
 
 SOLVING FOR HEAD 
                                                   Max.-Head-Change                         Max.-Flux-Residual
  Residual-Control   Outer-Iter.   Inner-Iter.     Column Row Layer    Maximum-Head-Change  Column Row Layer    Maximum-Flux-Residual          L2-NORM 
          0                 1           2             4    7     1       0.5073647074E-02       4    7    1         0.2652664063E+00      0.7835364522E+00
          0                 2           2             4    7     1      -0.1177371928E-01       4    7    1        -0.6323207397E+00      0.1548352425E+01
          0                 3           2             4    7     1       0.1174617419E-01       4    7    1         0.6484561365E+00      0.1593293099E+01
          0                 4           2             4    7     1      -0.4626667210E-03       4    7    1        -0.2625381202E-01      0.6487161415E-01
          0                 5           1             4    7     1       0.9505373646E-05       4    7    1         0.5543662696E-03      0.1513133876E-02

    ------------------------------------------------
       NWT REQUIRED            5 OUTER ITERATIONS 
       AND A TOTAL OF          9 INNER ITERATIONS.
    ------------------------------------------------

 NO OUTPUT CONTROL FOR STRESS PERIOD   18   TIME STEP    9
 
 SOLVING FOR HEAD 
                                                   Max.-Head-Change                         Max.-Flux-Residual
  Residual-Control   Outer-Iter.   Inner-Iter.     Column Row Layer    Maximum-Head-Change  Column Row Layer    Maximum-Flux-Residual          L2-NORM 
          0                 1           2             4    7     1       0.5042352434E-02       4    7    1         0.2636249702E+00      0.7820064242E+00
          0                 2           2             4    7     1      -0.1175635844E-01       4    7    1        -0.6313878150E+00      0.1546265583E+01
          0                 3           2             4    7     1       0.1172813652E-01       4    7    1         0.6474604036E+00      0.1590852357E+01
          0                 4           2             4    7     1      -0.4614769958E-03       4    7    1        -0.2618630366E-01      0.6470118378E-01
          0                 5           1             4    7     1       0.9872252366E-05       4    7    1         0.5757631602E-03      0.1572131416E-02

    ------------------------------------------------
       NWT REQUIRED            5 OUTER ITERATIONS 
       AND A TOTAL OF          9 INNER ITERATIONS.
    ------------------------------------------------

 NO OUTPUT CONTROL FOR STRESS PERIOD   18   TIME STEP   10
 
 SOLVING FOR HEAD 
                                                   Max.-Head-Change                         Max.-Flux-Residual
  Residual-Control   Outer-Iter.   Inner-Iter.     Column Row Layer    Maximum-Head-Change  Column Row Layer    Maximum-Flux-Residual          L2-NORM 
          0                 1           2             4    7     1       0.5011437197E-02       4    7    1         0.2620032152E+00      0.7805759471E+00
          0                 2           2             4    7     1      -0.1176141502E-01       4    7    1        -0.6316587861E+00      0.1547130410E+01
          0                 3           2             4    7     1       0.1173890220E-01       4    7    1         0.6480547748E+00      0.1592314976E+01
          0                 4           2             4    7     1      -0.4623227393E-03       4    7    1        -0.2623429670E-01      0.6482307174E-01
          0                 5           1             4    7     1       0.9546101569E-05       4    7    1         0.5567416756E-03      0.1518941621E-02

    ------------------------------------------------
       NWT REQUIRED            5 OUTER ITERATIONS 
       AND A TOTAL OF          9 INNER ITERATIONS.
    ------------------------------------------------

 NO OUTPUT CONTROL FOR STRESS PERIOD   18   TIME STEP   11
 
 SOLVING FOR HEAD 
                                                   Max.-Head-Change                         Max.-Flux-Residual
  Residual-Control   Outer-Iter.   Inner-Iter.     Column Row Layer    Maximum-Head-Change  Column Row Layer    Maximum-Flux-Residual          L2-NORM 
          0                 1           2             4    7     1       0.4980723828E-02       4    7    1         0.2603921922E+00      0.7791984900E+00
          0                 2           2             4    7     1      -0.1178948216E-01       4    7    1        -0.6331655406E+00      0.1551024912E+01
          0                 3           2             4    7     1       0.1177906800E-01       4    7    1         0.6502721986E+00      0.1597761617E+01
          0                 4           2             4    7     1      -0.4652206923E-03       4    7    1        -0.2639874125E-01      0.6523911531E-01
          0                 5           1             4    7     1       0.8527123890E-05       4    7    1         0.4973136352E-03      0.1348690135E-02

    ------------------------------------------------
       NWT REQUIRED            5 OUTER ITERATIONS 
       AND A TOTAL OF          9 INNER ITERATIONS.
    ------------------------------------------------

 NO OUTPUT CONTROL FOR STRESS PERIOD   18   TIME STEP   12
 
 SOLVING FOR HEAD 
                                                   Max.-Head-Change                         Max.-Flux-Residual
  Residual-Control   Outer-Iter.   Inner-Iter.     Column Row Layer    Maximum-Head-Change  Column Row Layer    Maximum-Flux-Residual          L2-NORM 
          0                 1           2             4    7     1       0.4950317325E-02       4    7    1         0.2587974179E+00      0.7778574973E+00
          0                 2           2             4    7     1      -0.1179896112E-01       4    7    1        -0.6336740520E+00      0.1552454714E+01
          0                 3           2             4    7     1       0.1179572616E-01       4    7    1         0.6511918702E+00      0.1600022634E+01
          0                 4           2             4    7     1      -0.4665165865E-03       4    7    1        -0.2647227797E-01      0.6542613297E-01
          0                 5           1             4    7     1       0.8029374317E-05       4    7    1         0.4682842791E-03      0.1271241494E-02

    ------------------------------------------------
       NWT REQUIRED            5 OUTER ITERATIONS 
       AND A TOTAL OF          9 INNER ITERATIONS.
    ------------------------------------------------

 NO OUTPUT CONTROL FOR STRESS PERIOD   18   TIME STEP   13
 
 SOLVING FOR HEAD 
                                                   Max.-Head-Change                         Max.-Flux-Residual
  Residual-Control   Outer-Iter.   Inner-Iter.     Column Row Layer    Maximum-Head-Change  Column Row Layer    Maximum-Flux-Residual          L2-NORM 
          0                 1           2             4    7     1       0.4920231995E-02       4    7    1         0.2572197428E+00      0.7765321690E+00
          0                 2           2             4    7     1      -0.1179674336E-01       4    7    1        -0.6335544311E+00      0.1552330466E+01
          0                 3           2             4    7     1       0.1179638264E-01       4    7    1         0.6512281605E+00      0.1600115896E+01
          0                 4           2             4    7     1      -0.4665609158E-03       4    7    1        -0.2647479538E-01      0.6543276404E-01
          0                 5           1             4    7     1       0.8013568576E-05       4    7    1         0.4673625172E-03      0.1268994465E-02

    ------------------------------------------------
       NWT REQUIRED            5 OUTER ITERATIONS 
       AND A TOTAL OF          9 INNER ITERATIONS.
    ------------------------------------------------

 NO OUTPUT CONTROL FOR STRESS PERIOD   18   TIME STEP   14
 
 SOLVING FOR HEAD 
                                                   Max.-Head-Change                         Max.-Flux-Residual
  Residual-Control   Outer-Iter.   Inner-Iter.     Column Row Layer    Maximum-Head-Change  Column Row Layer    Maximum-Flux-Residual          L2-NORM 
          0                 1           2             4    7     1       0.4890350608E-02       4    7    1         0.2556524567E+00      0.7751994775E+00
          0                 2           2             4    7     1      -0.1179451548E-01       4    7    1        -0.6334342398E+00      0.1552198714E+01
          0                 3           2             4    7     1       0.1179700497E-01       4    7    1         0.6512625632E+00      0.1600204487E+01
          0                 4           2             4    7     1      -0.4666038859E-03       4    7    1        -0.2647723559E-01      0.6543905564E-01
          0                 5           1             4    7     1       0.7999108469E-05       4    7    1         0.4665192191E-03      0.1266977001E-02

    ------------------------------------------------
       NWT REQUIRED            5 OUTER ITERATIONS 
       AND A TOTAL OF          9 INNER ITERATIONS.
    ------------------------------------------------

 NO OUTPUT CONTROL FOR STRESS PERIOD   18   TIME STEP   15
 
 SOLVING FOR HEAD 
                                                   Max.-Head-Change                         Max.-Flux-Residual
  Residual-Control   Outer-Iter.   Inner-Iter.     Column Row Layer    Maximum-Head-Change  Column Row Layer    Maximum-Flux-Residual          L2-NORM 
          0                 1           2             4    7     1       0.4860804988E-02       4    7    1         0.2541031010E+00      0.7738500612E+00
          0                 2           2             4    7     1      -0.1179229031E-01       4    7    1        -0.6333142322E+00      0.1552059126E+01
          0                 3           2             4    7     1       0.1179758970E-01       4    7    1         0.6512948926E+00      0.1600288043E+01
          0                 4           2             4    7     1      -0.4666439613E-03       4    7    1        -0.2647951162E-01      0.6544480872E-01
          0                 5           1             4    7     1       0.7985975737E-05       4    7    1         0.4657533495E-03      0.1264135466E-02

    ------------------------------------------------
       NWT REQUIRED            5 OUTER ITERATIONS 
       AND A TOTAL OF          9 INNER ITERATIONS.
    ------------------------------------------------

 NO OUTPUT CONTROL FOR STRESS PERIOD   18   TIME STEP   16
 
 SOLVING FOR HEAD 
                                                   Max.-Head-Change                         Max.-Flux-Residual
  Residual-Control   Outer-Iter.   Inner-Iter.     Column Row Layer    Maximum-Head-Change  Column Row Layer    Maximum-Flux-Residual          L2-NORM 
          0                 1           2             4    7     1       0.4831458183E-02       4    7    1         0.2525638017E+00      0.7724784866E+00
          0                 2           2             4    7     1      -0.1179005896E-01       4    7    1        -0.6331938593E+00      0.1551913279E+01
          0                 3           2             4    7     1       0.1179814488E-01       4    7    1         0.6513255870E+00      0.1600367675E+01
          0                 4           2             4    7     1      -0.4666814580E-03       4    7    1        -0.2648164120E-01      0.6545037033E-01
          0                 5           1             4    7     1       0.7972810634E-05       4    7    1         0.4649855737E-03      0.1262352588E-02

    ------------------------------------------------
       NWT REQUIRED            5 OUTER ITERATIONS 
       AND A TOTAL OF          9 INNER ITERATIONS.
    ------------------------------------------------

 NO OUTPUT CONTROL FOR STRESS PERIOD   18   TIME STEP   17
 
 SOLVING FOR HEAD 
                                                   Max.-Head-Change                         Max.-Flux-Residual
  Residual-Control   Outer-Iter.   Inner-Iter.     Column Row Layer    Maximum-Head-Change  Column Row Layer    Maximum-Flux-Residual          L2-NORM 
          0                 1           2             4    7     1       0.4802443187E-02       4    7    1         0.2510421672E+00      0.7710749283E+00
          0                 2           2             4    7     1      -0.1178783326E-01       4    7    1        -0.6330738224E+00      0.1551761326E+01
          0                 3           2             4    7     1       0.1179867021E-01       4    7    1         0.6513546361E+00      0.1600443456E+01
          0                 4           2             4    7     1      -0.4667191687E-03       4    7    1        -0.2648378298E-01      0.6545606845E-01
          0                 5           1             4    7     1       0.7961012447E-05       4    7    1         0.4642975250E-03      0.1260256313E-02

    ------------------------------------------------
       NWT REQUIRED            5 OUTER ITERATIONS 
       AND A TOTAL OF          9 INNER ITERATIONS.
    ------------------------------------------------

 NO OUTPUT CONTROL FOR STRESS PERIOD   18   TIME STEP   18
 
 SOLVING FOR HEAD 
                                                   Max.-Head-Change                         Max.-Flux-Residual
  Residual-Control   Outer-Iter.   Inner-Iter.     Column Row Layer    Maximum-Head-Change  Column Row Layer    Maximum-Flux-Residual          L2-NORM 
          0                 1           2             4    7     1       0.4773618760E-02       4    7    1         0.2495303831E+00      0.7696290235E+00
          0                 2           2             4    7     1      -0.1178560169E-01       4    7    1        -0.6329534593E+00      0.1551602970E+01
          0                 3           2             4    7     1       0.1181592090E-01       4    7    1         0.6523070178E+00      0.1602772826E+01
          0                 4           2             4    7     1      -0.4701688601E-03       4    7    1        -0.2667953583E-01      0.6596111133E-01
          0                 5           1             4    7     1       0.5797382156E-05       4    7    1         0.3381117367E-03      0.9095633819E-03

    ------------------------------------------------
       NWT REQUIRED            5 OUTER ITERATIONS 
       AND A TOTAL OF          9 INNER ITERATIONS.
    ------------------------------------------------

 NO OUTPUT CONTROL FOR STRESS PERIOD   18   TIME STEP   19
 
 SOLVING FOR HEAD 
                                                   Max.-Head-Change                         Max.-Flux-Residual
  Residual-Control   Outer-Iter.   Inner-Iter.     Column Row Layer    Maximum-Head-Change  Column Row Layer    Maximum-Flux-Residual          L2-NORM 
          0                 1           2             4    7     1       0.4745024884E-02       4    7    1         0.2480310325E+00      0.7681386841E+00
          0                 2           2             4    7     1      -0.1178416946E-01       4    7    1        -0.6328760628E+00      0.1551543038E+01
          0                 3           2             4    7     1       0.1181713586E-01       4    7    1         0.6523741389E+00      0.1602942158E+01
          0                 4           2             4    7     1      -0.4702172048E-03       4    7    1        -0.2668228111E-01      0.6596817252E-01
          0                 5           1             4    7     1       0.5797978635E-05       4    7    1         0.3381465322E-03      0.9091616994E-03

    ------------------------------------------------
       NWT REQUIRED            5 OUTER ITERATIONS 
       AND A TOTAL OF          9 INNER ITERATIONS.
    ------------------------------------------------

 NO OUTPUT CONTROL FOR STRESS PERIOD   18   TIME STEP   20
 
 SOLVING FOR HEAD 
                                                   Max.-Head-Change                         Max.-Flux-Residual
  Residual-Control   Outer-Iter.   Inner-Iter.     Column Row Layer    Maximum-Head-Change  Column Row Layer    Maximum-Flux-Residual          L2-NORM 
          0                 1           2             4    7     1       0.4716747817E-02       4    7    1         0.2465484657E+00      0.7666002143E+00
          0                 2           2             4    7     1      -0.1178270702E-01       4    7    1        -0.6327970664E+00      0.1551473355E+01
          0                 3           2             4    7     1       0.1181828939E-01       4    7    1         0.6524378698E+00      0.1603102776E+01
          0                 4           2             4    7     1      -0.4702631053E-03       4    7    1        -0.2668488774E-01      0.6597466111E-01
          0                 5           1             4    7     1       0.5798544198E-05       4    7    1         0.3381795577E-03      0.9093932952E-03

    ------------------------------------------------
       NWT REQUIRED            5 OUTER ITERATIONS 
       AND A TOTAL OF          9 INNER ITERATIONS.
    ------------------------------------------------

 NO OUTPUT CONTROL FOR STRESS PERIOD   18   TIME STEP   21
 
 SOLVING FOR HEAD 
                                                   Max.-Head-Change                         Max.-Flux-Residual
  Residual-Control   Outer-Iter.   Inner-Iter.     Column Row Layer    Maximum-Head-Change  Column Row Layer    Maximum-Flux-Residual          L2-NORM 
          0                 1           2             4    7     1       0.4688649790E-02       4    7    1         0.2450749697E+00      0.7650344046E+00
          0                 2           2             4    7     1      -0.1178120207E-01       4    7    1        -0.6327157584E+00      0.1551394468E+01
          0                 3           2             4    7     1       0.1180361836E-01       4    7    1         0.6516279924E+00      0.1601137338E+01
          0                 4           2             4    7     1      -0.4670911309E-03       4    7    1        -0.2650489752E-01      0.6549975441E-01
          0                 5           1             4    7     1       0.7825241729E-05       4    7    1         0.4563793605E-03      0.1233126731E-02

    ------------------------------------------------
       NWT REQUIRED            5 OUTER ITERATIONS 
       AND A TOTAL OF          9 INNER ITERATIONS.
    ------------------------------------------------

 NO OUTPUT CONTROL FOR STRESS PERIOD   18   TIME STEP   22
 
 SOLVING FOR HEAD 
                                                   Max.-Head-Change                         Max.-Flux-Residual
  Residual-Control   Outer-Iter.   Inner-Iter.     Column Row Layer    Maximum-Head-Change  Column Row Layer    Maximum-Flux-Residual          L2-NORM 
          0                 1           2             4    7     1       0.4660956053E-02       4    7    1         0.2436226303E+00      0.7634391284E+00
          0                 2           2             4    7     1      -0.1177894290E-01       4    7    1        -0.6325939487E+00      0.1551212828E+01
          0                 3           2             4    7     1       0.1180394209E-01       4    7    1         0.6516459104E+00      0.1601185728E+01
          0                 4           2             4    7     1      -0.4671124160E-03       4    7    1        -0.2650610721E-01      0.6550299698E-01
          0                 5           1             4    7     1       0.7817327769E-05       4    7    1         0.4559178433E-03      0.1231709878E-02

    ------------------------------------------------
       NWT REQUIRED            5 OUTER ITERATIONS 
       AND A TOTAL OF          9 INNER ITERATIONS.
    ------------------------------------------------

 NO OUTPUT CONTROL FOR STRESS PERIOD   18   TIME STEP   23
 
 SOLVING FOR HEAD 
                                                   Max.-Head-Change                         Max.-Flux-Residual
  Residual-Control   Outer-Iter.   Inner-Iter.     Column Row Layer    Maximum-Head-Change  Column Row Layer    Maximum-Flux-Residual          L2-NORM 
          0                 1           2             4    7     1       0.4633440354E-02       4    7    1         0.2421793637E+00      0.7618098045E+00
          0                 2           2             4    7     1      -0.1177668331E-01       4    7    1        -0.6324720927E+00      0.1551027859E+01
          0                 3           2             4    7     1       0.1180424421E-01       4    7    1         0.6516626330E+00      0.1601232316E+01
          0                 4           2             4    7     1      -0.4671314401E-03       4    7    1        -0.2650718849E-01      0.6550444792E-01
          0                 5           1             4    7     1       0.7810748129E-05       4    7    1         0.4555341670E-03      0.1229881459E-02

    ------------------------------------------------
       NWT REQUIRED            5 OUTER ITERATIONS 
       AND A TOTAL OF          9 INNER ITERATIONS.
    ------------------------------------------------

 NO OUTPUT CONTROL FOR STRESS PERIOD   18   TIME STEP   24
 
 SOLVING FOR HEAD 
                                                   Max.-Head-Change                         Max.-Flux-Residual
  Residual-Control   Outer-Iter.   Inner-Iter.     Column Row Layer    Maximum-Head-Change  Column Row Layer    Maximum-Flux-Residual          L2-NORM 
          0                 1           2             4    7     1       0.4606231549E-02       4    7    1         0.2407526845E+00      0.7601401587E+00
          0                 2           2             4    7     1      -0.1176621283E-01       4    7    1        -0.6319093310E+00      0.1549753964E+01
          0                 3           2             4    7     1       0.1179376082E-01       4    7    1         0.6510839372E+00      0.1599815966E+01
          0                 4           2             4    7     1      -0.4663655594E-03       4    7    1        -0.2646373087E-01      0.6539459642E-01
          0                 5           1             4    7     1       0.8084740450E-05       4    7    1         0.4715138143E-03      0.1274089898E-02

    ------------------------------------------------
       NWT REQUIRED            5 OUTER ITERATIONS 
       AND A TOTAL OF          9 INNER ITERATIONS.
    ------------------------------------------------

 NO OUTPUT CONTROL FOR STRESS PERIOD   18   TIME STEP   25
 
 SOLVING FOR HEAD 
                                                   Max.-Head-Change                         Max.-Flux-Residual
  Residual-Control   Outer-Iter.   Inner-Iter.     Column Row Layer    Maximum-Head-Change  Column Row Layer    Maximum-Flux-Residual          L2-NORM 
          0                 1           2             4    7     1       0.4579209417E-02       4    7    1         0.2393351977E+00      0.7584370942E+00
          0                 2           2             4    7     1      -0.1177238186E-01       4    7    1        -0.6322401276E+00      0.1550675877E+01
          0                 3           2             4    7     1       0.1180505549E-01       4    7    1         0.6517075103E+00      0.1601351108E+01
          0                 4           2             4    7     1      -0.4671903335E-03       4    7    1        -0.2651053402E-01      0.6551315563E-01
          0                 5           1             4    7     1       0.7791033854E-05       4    7    1         0.4543844771E-03      0.1226434254E-02

    ------------------------------------------------
       NWT REQUIRED            5 OUTER ITERATIONS 
       AND A TOTAL OF          9 INNER ITERATIONS.
    ------------------------------------------------

 NO OUTPUT CONTROL FOR STRESS PERIOD   18   TIME STEP   26
 
 SOLVING FOR HEAD 
                                                   Max.-Head-Change                         Max.-Flux-Residual
  Residual-Control   Outer-Iter.   Inner-Iter.     Column Row Layer    Maximum-Head-Change  Column Row Layer    Maximum-Flux-Residual          L2-NORM 
          0                 1           2             4    7     1       0.4552479792E-02       4    7    1         0.2379334585E+00      0.7567048903E+00
          0                 2           2             4    7     1      -0.1177014327E-01       4    7    1        -0.6321194441E+00      0.1550482401E+01
          0                 3           2             4    7     1       0.1180529356E-01       4    7    1         0.6517206990E+00      0.1601387974E+01
          0                 4           2             4    7     1      -0.4672054099E-03       4    7    1        -0.2651139137E-01      0.6551567155E-01
          0                 5           1             4    7     1       0.7787132601E-05       4    7    1         0.4541569747E-03      0.1226227773E-02

    ------------------------------------------------
       NWT REQUIRED            5 OUTER ITERATIONS 
       AND A TOTAL OF          9 INNER ITERATIONS.
    ------------------------------------------------

 NO OUTPUT CONTROL FOR STRESS PERIOD   18   TIME STEP   27
 
 SOLVING FOR HEAD 
                                                   Max.-Head-Change                         Max.-Flux-Residual
  Residual-Control   Outer-Iter.   Inner-Iter.     Column Row Layer    Maximum-Head-Change  Column Row Layer    Maximum-Flux-Residual          L2-NORM 
          0                 1           2             4    7     1       0.4526053521E-02       4    7    1         0.2365475395E+00      0.7549457405E+00
          0                 2           2             4    7     1      -0.1176791978E-01       4    7    1        -0.6319995678E+00      0.1550288013E+01
          0                 3           2             4    7     1       0.1180551865E-01       4    7    1         0.6517331693E+00      0.1601423041E+01
          0                 4           2             4    7     1      -0.4672213688E-03       4    7    1        -0.2651229874E-01      0.6551766416E-01
          0                 5           1             4    7     1       0.7781877873E-05       4    7    1         0.4538505623E-03      0.1223507779E-02

    ------------------------------------------------
       NWT REQUIRED            5 OUTER ITERATIONS 
       AND A TOTAL OF          9 INNER ITERATIONS.
    ------------------------------------------------

 NO OUTPUT CONTROL FOR STRESS PERIOD   18   TIME STEP   28
 
 SOLVING FOR HEAD 
                                                   Max.-Head-Change                         Max.-Flux-Residual
  Residual-Control   Outer-Iter.   Inner-Iter.     Column Row Layer    Maximum-Head-Change  Column Row Layer    Maximum-Flux-Residual          L2-NORM 
          0                 1           2             4    7     1       0.4499786998E-02       4    7    1         0.2351699943E+00      0.7531550122E+00
          0                 2           2             4    7     1      -0.1176569518E-01       4    7    1        -0.6318796348E+00      0.1550090669E+01
          0                 3           2             4    7     1       0.1180572171E-01       4    7    1         0.6517444237E+00      0.1601455073E+01
          0                 4           2             4    7     1      -0.4672336509E-03       4    7    1        -0.2651299748E-01      0.6551999681E-01
          0                 5           1             4    7     1       0.7776578788E-05       4    7    1         0.4535415387E-03      0.1223574996E-02

    ------------------------------------------------
       NWT REQUIRED            5 OUTER ITERATIONS 
       AND A TOTAL OF          9 INNER ITERATIONS.
    ------------------------------------------------

 NO OUTPUT CONTROL FOR STRESS PERIOD   18   TIME STEP   29
 
 SOLVING FOR HEAD 
                                                   Max.-Head-Change                         Max.-Flux-Residual
  Residual-Control   Outer-Iter.   Inner-Iter.     Column Row Layer    Maximum-Head-Change  Column Row Layer    Maximum-Flux-Residual          L2-NORM 
          0                 1           2             4    7     1       0.4473817648E-02       4    7    1         0.2338080890E+00      0.7513389793E+00
          0                 2           2             4    7     1      -0.1176348951E-01       4    7    1        -0.6317607293E+00      0.1549892327E+01
          0                 3           2             4    7     1       0.1182127374E-01       4    7    1         0.6526030301E+00      0.1603555429E+01
          0                 4           2             4    7     1      -0.4703818565E-03       4    7    1        -0.2669164287E-01      0.6598119454E-01
          0                 5           1             4    7     1       0.5800008456E-05       4    7    1         0.3382651576E-03      0.9023600422E-03

    ------------------------------------------------
       NWT REQUIRED            5 OUTER ITERATIONS 
       AND A TOTAL OF          9 INNER ITERATIONS.
    ------------------------------------------------

 NO OUTPUT CONTROL FOR STRESS PERIOD   18   TIME STEP   30



 STREAM LISTING     PERIOD     18   STEP       30

 LAYER ROW COL. STREAM  RCH.  FLOW INTO     FLOW TO   FLOW OUT OF   OVRLND.     DIRECT     STREAM       STREAM     STREAM     STREAM   STREAMBED  STREAMBED
                SEG.NO.  NO.  STRM. RCH.    AQUIFER    STRM. RCH.    RUNOFF     PRECIP       ET          HEAD       DEPTH      WIDTH   CONDCTNC.   GRADIENT

   1    1    1     1     1    2.3625E+01  2.3872E-01   2.3387E+01  0.000E+00  0.000E+00  0.000E+00  1.09421E+03  1.157E+00  1.276E+01  5.742E-02  1.386E+00
   1    2    2     1     2    2.3387E+01  3.6909E-01   2.3018E+01  0.000E+00  0.000E+00  0.000E+00  1.08921E+03  1.153E+00  1.270E+01  8.888E-02  1.384E+00
   1    3    3     1     3    2.3018E+01  3.1418E-01   2.2703E+01  0.000E+00  0.000E+00  0.000E+00  1.08357E+03  1.147E+00  1.263E+01  7.575E-02  1.382E+00
   1    3    4     1     4    2.2703E+01  2.8882E-01   2.2415E+01  0.000E+00  0.000E+00  0.000E+00  1.07855E+03  1.143E+00  1.256E+01  6.972E-02  1.381E+00
   1    4    5     2     1    2.0415E+01  3.1702E-01   2.0098E+01  0.000E+00  0.000E+00  0.000E+00  1.07300E+03  1.064E+00  1.200E+01  7.800E-02  1.355E+00
   1    5    6     2     2    2.0098E+01  2.4333E-01   1.9854E+01  0.000E+00  0.000E+00  0.000E+00  1.06756E+03  1.055E+00  1.200E+01  6.000E-02  1.352E+00
   1    6    6     2     3    1.9854E+01  2.4286E-01   1.9611E+01  0.000E+00  0.000E+00  0.000E+00  1.06284E+03  1.048E+00  1.200E+01  6.000E-02  1.349E+00
   1    7    6     2     4    1.9611E+01  2.4240E-01   1.9369E+01  0.000E+00  0.000E+00  0.000E+00  1.05812E+03  1.040E+00  1.200E+01  6.000E-02  1.347E+00
   1    8    6     2     5    1.9369E+01  2.4193E-01   1.9127E+01  0.000E+00  0.000E+00  0.000E+00  1.05339E+03  1.032E+00  1.200E+01  6.000E-02  1.344E+00
   1    3    5     3     1    2.0000E+00  2.8252E-01   1.7175E+00  0.000E+00  0.000E+00  0.000E+00  1.07555E+03  1.909E+00  9.636E+00  7.227E-02  1.955E+00
   1    3    6     3     2    1.7175E+00  2.4905E-01   1.4684E+00  0.000E+00  0.000E+00  0.000E+00  1.07264E+03  1.727E+00  8.909E+00  6.682E-02  1.864E+00
   1    3    7     3     3    1.4684E+00  1.9718E-01   1.2712E+00  0.000E+00  0.000E+00  0.000E+00  1.06987E+03  1.555E+00  8.218E+00  5.547E-02  1.777E+00
   1    4    8     3     4    1.2712E+00  2.2567E-01   1.0456E+00  0.000E+00  0.000E+00  0.000E+00  1.06682E+03  1.364E+00  7.455E+00  6.709E-02  1.682E+00
   1    5    8     3     5    1.0456E+00  1.5790E-01   8.8768E-01  0.000E+00  0.000E+00  0.000E+00  1.06362E+03  1.164E+00  6.655E+00  4.991E-02  1.582E+00
   1    6    8     3     6    8.8768E-01  5.5980E-02   8.3170E-01  0.000E+00  0.000E+00  0.000E+00  1.06158E+03  1.036E+00  6.145E+00  1.844E-02  1.518E+00
   1    5   10     4     1    1.0000E+01  9.0919E-02   9.9091E+00  0.000E+00  0.000E+00  0.000E+00  1.07836E+03  6.368E-01  1.000E+01  2.500E-02  1.212E+00
   1    5    9     4     2    9.9091E+00  1.8158E-01   9.7275E+00  0.000E+00  0.000E+00  0.000E+00  1.07154E+03  6.315E-01  1.000E+01  5.000E-02  1.211E+00
   1    6    8     4     3    9.7275E+00  1.2689E-01   9.6006E+00  0.000E+00  0.000E+00  0.000E+00  1.06381E+03  6.256E-01  1.000E+01  3.500E-02  1.209E+00
   1    6    8     5     1    1.0432E+01  2.2686E-01   1.0205E+01  0.000E+00  0.000E+00  0.000E+00  1.05868E+03  6.790E-01  1.542E+01  6.166E-02  1.226E+00
   1    7    7     5     2    1.0205E+01  2.7894E-01   9.9265E+00  0.000E+00  0.000E+00  0.000E+00  1.05417E+03  6.732E-01  1.519E+01  7.594E-02  1.224E+00
   1    8    7     5     3    9.9265E+00  1.9221E-01   9.7343E+00  0.000E+00  0.000E+00  0.000E+00  1.04992E+03  6.676E-01  1.497E+01  5.241E-02  1.223E+00
   1    8    6     5     4    9.7343E+00  1.3577E-01   9.5985E+00  0.000E+00  0.000E+00  0.000E+00  1.04691E+03  6.637E-01  1.482E+01  3.706E-02  1.221E+00
   1    9    6     6     1    2.1425E+01  2.4655E-01   2.1178E+01  0.000E+00  0.000E+00  0.000E+00  1.04384E+03  1.109E+00  1.200E+01  6.000E-02  1.370E+00
   1   10    7     6     2    2.1178E+01  2.4609E-01   2.0932E+01  0.000E+00  0.000E+00  0.000E+00  1.03928E+03  1.102E+00  1.200E+01  6.000E-02  1.367E+00
   1   11    7     6     3    2.0932E+01  2.4563E-01   2.0687E+01  0.000E+00  0.000E+00  0.000E+00  1.03473E+03  1.094E+00  1.200E+01  6.000E-02  1.365E+00
   1   12    7     6     4    2.0687E+01  2.4516E-01   2.0442E+01  0.000E+00  0.000E+00  0.000E+00  1.03018E+03  1.086E+00  1.200E+01  6.000E-02  1.362E+00
   1   13    7     6     5    2.0442E+01  5.0388E-03   2.0437E+01  0.000E+00  0.000E+00  0.000E+00  1.02699E+03  1.082E+00  1.200E+01  2.400E-02  6.998E-02
   1   14    9     7     1    1.5000E+02  1.3717E+00   1.4863E+02  0.000E+00  0.000E+00  0.000E+00  1.03987E+03  2.288E+00  5.529E+01  5.593E-01  8.175E-01
   1   13    8     7     2    1.4863E+02  1.9338E+00   1.4669E+02  0.000E+00  0.000E+00  0.000E+00  1.03478E+03  2.279E+00  5.525E+01  6.148E-01  1.049E+00
   1   13    7     7     3    1.4669E+02  1.6235E+00   1.4507E+02  0.000E+00  0.000E+00  0.000E+00  1.02969E+03  2.269E+00  5.521E+01  5.584E-01  9.692E-01
   1   13    6     8     1    1.6551E+02  1.0407E+00   1.6447E+02  0.000E+00  0.000E+00  0.000E+00  1.02479E+03  2.919E+00  4.233E+01  4.313E-01  8.042E-01
   1   13    5     8     2    1.6447E+02  2.8390E-01   1.6418E+02  0.000E+00  0.000E+00  0.000E+00  1.01854E+03  2.915E+00  4.227E+01  4.307E-01  2.197E-01
   1   13    4     8     3    1.6418E+02 -2.0801E+00   1.6626E+02  0.000E+00  0.000E+00  0.000E+00  1.01230E+03  2.921E+00  4.235E+01  4.316E+00 -1.607E-01
   1   13    3     8     4    1.6626E+02 -3.4785E+00   1.6974E+02  0.000E+00  0.000E+00  0.000E+00  1.00606E+03  2.939E+00  4.262E+01  4.343E+00 -2.670E-01
   1   13    2     8     5    1.6974E+02 -2.5485E+00   1.7229E+02  0.000E+00  0.000E+00  0.000E+00  9.99834E+02  2.959E+00  4.290E+01  4.372E+00 -1.943E-01
   1   13    1     8     6    1.7229E+02 -1.9921E+00   1.7428E+02  0.000E+00  0.000E+00  0.000E+00  9.94848E+02  2.973E+00  4.312E+01  2.636E+00 -2.519E-01
   1    8    6     9     1    7.3006E+00  0.0000E+00   7.3006E+00  0.000E+00  0.000E+00  0.000E+00  1.08063E+03  1.876E+00  4.000E+00  0.000E+00  1.625E+00
   1    8    5     9     2    7.3006E+00  0.0000E+00   7.3006E+00  0.000E+00  0.000E+00  0.000E+00  1.08013E+03  1.876E+00  4.000E+00  0.000E+00  1.625E+00





UNSATURATED ZONE PACKAGE VOLUMETRIC BUDGET FOR  TIME STEP    30 STRESS PERIOD   18
  ------------------------------------------------------------------------------



     CUMULATIVE VOLUMES      L**3       RATES FOR THIS TIME STEP      L**3/T
     ------------------                 ------------------------

           IN:                                      IN:
           ---                                      ---
        INFILTRATION =   708443373.0740          INFILTRATION =          11.7082

          OUT:                                     OUT:
          ----                                     ----
              UZF ET =   566971059.5366                UZF ET =          11.6148
        UZF RECHARGE =      167968.6155          UZF RECHARGE =       0.0000E+00

            IN - OUT =   141304344.9218              IN - OUT =       9.3374E-02

          STORAGE:                                 STORAGE:
          --------                                 --------
      STORAGE CHANGE =   141304336.0358        STORAGE CHANGE =       9.3374E-02

 PERCENT DISCREPANCY IS DIFFERENCE BETWEEN IN-OUT MINUS CHANGE IN STORAGE
 DIVIDED BY THE AVERAGE OF IN AND OUT TIMES 100

 PERCENT DISCREPANCY =           0.00     PERCENT DISCREPANCY =           0.00






1
  VOLUMETRIC BUDGET FOR AGRICULTURAL FIELDS AT  END OF TIME STEP   30, STRESS PERIOD  18
  ------------------------------------------------------------------------------

     CUMULATIVE VOLUMES      L**3       RATES FOR THIS TIME STEP      L**3/T
     ------------------                 ------------------------

           IN:                                      IN:
           ---                                      ---
               AG WELLS  =   266637472.0000                 AG WELLS  =           0.0000
      DIVERSION SEGMENTS =   244807904.0000        DIVERSION SEGMENTS =           7.3006
           GW IRRIGATION =           0.0000             GW IRRIGATION =           0.0000
           SW IRRIGATION =           0.0000             SW IRRIGATION =           0.0000
        SYSTEM LOSSES GW =           0.0000          SYSTEM LOSSES GW =           0.0000
        SYSTEM LOSSES SW =           0.0000          SYSTEM LOSSES SW =           0.0000

                TOTAL IN =   511445376.0000                  TOTAL IN =           7.3006

          OUT:                                     OUT:
          ----                                     ----
               AG WELLS  =           0.0000                 AG WELLS  =           0.0000
      DIVERSION SEGMENTS =           0.0000        DIVERSION SEGMENTS =           0.0000
           GW IRRIGATION =   266637472.0000             GW IRRIGATION =           0.0000
           SW IRRIGATION =   244812832.0000             SW IRRIGATION =           7.3007
        SYSTEM LOSSES GW =           0.0000          SYSTEM LOSSES GW =           0.0000
        SYSTEM LOSSES SW =           0.0000          SYSTEM LOSSES SW =           0.0000

               TOTAL OUT =   511450304.0000                 TOTAL OUT =           7.3007

                IN - OUT =       -4928.0000                  IN - OUT =      -1.4544E-04

     PERCENT DISCREPANCY =          -0.00         PERCENT DISCREPANCY =          -0.00



1
  VOLUMETRIC BUDGET FOR ENTIRE MODEL AT END OF TIME STEP   30, STRESS PERIOD  18
  ------------------------------------------------------------------------------

     CUMULATIVE VOLUMES      L**3       RATES FOR THIS TIME STEP      L**3/T
     ------------------                 ------------------------

           IN:                                      IN:
           ---                                      ---
             STORAGE     =   425194496.0000               STORAGE     =           1.5180
       CONSTANT HEAD     =           0.0000         CONSTANT HEAD     =           0.0000
     HEAD DEP BOUNDS     =    12900969.0000       HEAD DEP BOUNDS     =           0.2882
      STREAM LEAKAGE     =   527832960.0000        STREAM LEAKAGE     =          12.1419
        UZF RECHARGE     =      167968.5625          UZF RECHARGE     =           0.0000
               GW ET     =           0.0000                 GW ET     =           0.0000
     SURFACE LEAKAGE     =           0.0000       SURFACE LEAKAGE     =           0.0000
           AG WELLS      =           0.0000             AG WELLS      =           0.0000

                TOTAL IN =   966096448.0000                  TOTAL IN =          13.9481

          OUT:                                     OUT:
          ----                                     ----
             STORAGE     =   228068720.0000               STORAGE     =           3.5600
       CONSTANT HEAD     =           0.0000         CONSTANT HEAD     =           0.0000
     HEAD DEP BOUNDS     =    12911478.0000       HEAD DEP BOUNDS     =           0.2890
      STREAM LEAKAGE     =   458484896.0000        STREAM LEAKAGE     =          10.0991
        UZF RECHARGE     =           0.0000          UZF RECHARGE     =           0.0000
               GW ET     =           0.0000                 GW ET     =           0.0000
     SURFACE LEAKAGE     =           0.0000       SURFACE LEAKAGE     =           0.0000
           AG WELLS      =   266637472.0000             AG WELLS      =           0.0000

               TOTAL OUT =   966102528.0000                 TOTAL OUT =          13.9481

                IN - OUT =       -6080.0000                  IN - OUT =       5.0545E-05

     PERCENT DISCREPANCY =          -0.00         PERCENT DISCREPANCY =           0.00






         TIME SUMMARY AT END OF TIME STEP   30 IN STRESS PERIOD   18
                    SECONDS     MINUTES      HOURS       DAYS        YEARS
                    -----------------------------------------------------------
   TIME STEP LENGTH  87667.      1461.1      24.352      1.0147     2.77799E-03
 STRESS PERIOD TIME 2.63000E+06  43833.      730.56      30.440     8.33397E-02
         TOTAL TIME 4.47965E+07 7.46608E+05  12443.      518.48      1.4195    
1
1
                            STRESS PERIOD NO.   19, LENGTH =   2630000.    
                            -----------------------------------------------

                              NUMBER OF TIME STEPS =    30

                               MULTIPLIER FOR DELT =     1.000

                            INITIAL TIME STEP SIZE =   87666.66    

 REUSING NON-PARAMETER GHB CELLS FROM LAST STRESS PERIOD

      2 GHB CELLS

 REUSING STREAM SEGMENT DATA FROM LAST STRESS PERIOD



            AREAL INFILTRATION RATE
 READING ON UNIT   19 WITH FORMAT: (10F4.0)            

            1           2           3           4           5           6           7           8           9          10
 ........................................................................................................................
   1   1.2000E-09   0.000       0.000       0.000       0.000       0.000       0.000       0.000       0.000       0.000    
   2   2.1000E-09  2.0000E-09  8.0000E-10  8.5000E-09   0.000       0.000       0.000       0.000       0.000       0.000    
   3   5.0000E-10  1.1000E-09  8.8000E-09  5.5000E-09   0.000       0.000       0.000       0.000       0.000       0.000    
   4   8.5000E-09  1.1000E-09  1.1000E-09  1.1000E-09  2.0000E-09   0.000       0.000       0.000       0.000       0.000    
   5   8.5000E-09  1.1000E-09  1.1000E-09  1.1000E-09  1.1000E-09   0.000       0.000       0.000       0.000       0.000    
   6   8.5000E-09  5.2000E-09  2.1000E-09  1.1000E-09  1.5000E-09   0.000       0.000       0.000       0.000       0.000    
   7   8.5000E-09  5.2000E-09  2.1000E-09  1.2000E-09  2.0000E-09   0.000       0.000       0.000       0.000       0.000    
   8   5.0000E-10  5.2000E-09  2.1000E-09  1.2000E-09  5.0000E-09   0.000       0.000       0.000       0.000       0.000    
   9   5.0000E-10  5.2000E-09  2.1000E-09  1.2000E-09  5.0000E-09   0.000       0.000       0.000       0.000       0.000    
  10   5.0000E-10  5.2000E-09  2.1000E-09  1.2000E-09  5.8000E-09   0.000       0.000       0.000       0.000       0.000    
  11   1.0000E-10  1.1000E-09  1.1000E-09  1.2000E-09  5.0000E-09   0.000       0.000       0.000       0.000       0.000    
  12   1.1000E-09  1.1000E-09  1.1000E-09  1.1000E-09  2.0000E-09   0.000       0.000       0.000       0.000       0.000    
  13   1.1000E-09  2.2000E-09  2.2000E-09  2.1000E-09  1.0000E-09   0.000       0.000       0.000       0.000       0.000    
  14   2.0000E-10  5.5000E-09  5.5000E-09  5.2000E-09  1.0000E-09   0.000       0.000       0.000       0.000       0.000    
  15    0.000      8.8000E-09  8.8000E-09   0.000       0.000       0.000       0.000       0.000       0.000       0.000    

                  ET RATE =  1.500000E-07

 USING ET EXTINCTION DEPTH FROM PREVIOUS STRESS PERIOD. CURRENT PERIOD IS:      19

 USING EXTINCTION WATER CONTENT FROM PREVIOUS STRESS PERIOD. CURRENT PERIOD IS:      19

 USING AIR ENTRY PRESSURE FROM PREVIOUS STRESS PERIOD. CURRENT PERIOD IS:      19

 USING ROOT PRESSURE HEAD FROM PREVIOUS STRESS PERIOD. CURRENT PERIOD IS:      19

 USING ROOT ACTIVITY FROM PREVIOUS STRESS PERIOD. CURRENT PERIOD IS:      19

 PROCESSING AG STRESS PERIOD DATA

 READING AG STRESS PERIOD DATA

 READING IRRIGATION SEGMENT

 READING IRRIGATION WELL

 READING SUPPLEMENTAL WELL

 END PROCESSING AG STRESS PERIOD DATA OPTIONS
 
 SOLVING FOR HEAD 
                                                   Max.-Head-Change                         Max.-Flux-Residual
  Residual-Control   Outer-Iter.   Inner-Iter.     Column Row Layer    Maximum-Head-Change  Column Row Layer    Maximum-Flux-Residual          L2-NORM 
          0                 1           2             4    7     1       0.4447901893E-02       4    7    1         0.2324498337E+00      0.7246870151E+00
          0                 2           2             4    7     1      -0.3574979203E-01       4    7    1        -0.1919930246E+01      0.4718602435E+01
          0                 3           2             4    7     1       0.2057861248E-01       4    7    1         0.1136057683E+01      0.2789575555E+01
          0                 4           2             7   13     1      -0.8722766247E-03       7   13    1        -0.4729926462E-01      0.1242314174E+00
          0                 5           1             7   13     1       0.8480518256E-04       7   13    1         0.4726843927E-02      0.4987953591E-02

    ------------------------------------------------
       NWT REQUIRED            5 OUTER ITERATIONS 
       AND A TOTAL OF          9 INNER ITERATIONS.
    ------------------------------------------------

 OUTPUT CONTROL FOR STRESS PERIOD   19   TIME STEP    1
    PRINT BUDGET
    SAVE BUDGET
 UBDSV1 SAVING "         STORAGE" ON UNIT 102 AT TIME STEP  1, STRESS PERIOD  19
 UBDSV2 SAVING "   CONSTANT HEAD" ON UNIT 102 AT TIME STEP  1, STRESS PERIOD  19
 UBDSV1 SAVING "FLOW RIGHT FACE " ON UNIT 102 AT TIME STEP  1, STRESS PERIOD  19
 UBDSV1 SAVING "FLOW FRONT FACE " ON UNIT 102 AT TIME STEP  1, STRESS PERIOD  19

  HEAD DEP BOUNDS   PERIOD   19   STEP     1
 BOUNDARY      1   LAYER   1   ROW    13   COL     1   RATE   -0.288853    
 BOUNDARY      2   LAYER   1   ROW    14   COL     9   RATE    0.288204    



 STREAM LISTING     PERIOD     19   STEP        1

 LAYER ROW COL. STREAM  RCH.  FLOW INTO     FLOW TO   FLOW OUT OF   OVRLND.     DIRECT     STREAM       STREAM     STREAM     STREAM   STREAMBED  STREAMBED
                SEG.NO.  NO.  STRM. RCH.    AQUIFER    STRM. RCH.    RUNOFF     PRECIP       ET          HEAD       DEPTH      WIDTH   CONDCTNC.   GRADIENT

   1    1    1     1     1    2.1826E+01  2.3002E-01   2.1596E+01  0.000E+00  0.000E+00  0.000E+00  1.09418E+03  1.129E+00  1.238E+01  5.571E-02  1.376E+00
   1    2    2     1     2    2.1596E+01  3.5556E-01   2.1240E+01  0.000E+00  0.000E+00  0.000E+00  1.08918E+03  1.124E+00  1.232E+01  8.622E-02  1.375E+00
   1    3    3     1     3    2.1240E+01  3.0257E-01   2.0938E+01  0.000E+00  0.000E+00  0.000E+00  1.08354E+03  1.119E+00  1.224E+01  7.347E-02  1.373E+00
   1    3    4     1     4    2.0938E+01  2.7808E-01   2.0660E+01  0.000E+00  0.000E+00  0.000E+00  1.07852E+03  1.114E+00  1.218E+01  6.760E-02  1.371E+00
   1    4    5     2     1    1.8660E+01  3.1263E-01   1.8347E+01  0.000E+00  0.000E+00  0.000E+00  1.07294E+03  1.008E+00  1.200E+01  7.800E-02  1.336E+00
   1    5    6     2     2    1.8347E+01  2.3994E-01   1.8107E+01  0.000E+00  0.000E+00  0.000E+00  1.06751E+03  9.990E-01  1.200E+01  6.000E-02  1.333E+00
   1    6    6     2     3    1.8107E+01  2.3947E-01   1.7868E+01  0.000E+00  0.000E+00  0.000E+00  1.06278E+03  9.911E-01  1.200E+01  6.000E-02  1.330E+00
   1    7    6     2     4    1.7868E+01  2.3899E-01   1.7629E+01  0.000E+00  0.000E+00  0.000E+00  1.05806E+03  9.832E-01  1.200E+01  6.000E-02  1.328E+00
   1    8    6     2     5    1.7629E+01  2.3851E-01   1.7390E+01  0.000E+00  0.000E+00  0.000E+00  1.05333E+03  9.752E-01  1.200E+01  6.000E-02  1.325E+00
   1    3    5     3     1    2.0000E+00  2.8252E-01   1.7175E+00  0.000E+00  0.000E+00  0.000E+00  1.07555E+03  1.909E+00  9.636E+00  7.227E-02  1.955E+00
   1    3    6     3     2    1.7175E+00  2.4905E-01   1.4684E+00  0.000E+00  0.000E+00  0.000E+00  1.07264E+03  1.727E+00  8.909E+00  6.682E-02  1.864E+00
   1    3    7     3     3    1.4684E+00  1.9718E-01   1.2712E+00  0.000E+00  0.000E+00  0.000E+00  1.06987E+03  1.555E+00  8.218E+00  5.547E-02  1.777E+00
   1    4    8     3     4    1.2712E+00  2.2567E-01   1.0456E+00  0.000E+00  0.000E+00  0.000E+00  1.06682E+03  1.364E+00  7.455E+00  6.709E-02  1.682E+00
   1    5    8     3     5    1.0456E+00  1.5790E-01   8.8768E-01  0.000E+00  0.000E+00  0.000E+00  1.06362E+03  1.164E+00  6.655E+00  4.991E-02  1.582E+00
   1    6    8     3     6    8.8768E-01  5.5980E-02   8.3170E-01  0.000E+00  0.000E+00  0.000E+00  1.06158E+03  1.036E+00  6.145E+00  1.844E-02  1.518E+00
   1    5   10     4     1    1.0000E+01  9.0919E-02   9.9091E+00  0.000E+00  0.000E+00  0.000E+00  1.07836E+03  6.368E-01  1.000E+01  2.500E-02  1.212E+00
   1    5    9     4     2    9.9091E+00  1.8158E-01   9.7275E+00  0.000E+00  0.000E+00  0.000E+00  1.07154E+03  6.315E-01  1.000E+01  5.000E-02  1.211E+00
   1    6    8     4     3    9.7275E+00  1.2689E-01   9.6006E+00  0.000E+00  0.000E+00  0.000E+00  1.06381E+03  6.256E-01  1.000E+01  3.500E-02  1.209E+00
   1    6    8     5     1    1.0432E+01  2.2686E-01   1.0205E+01  0.000E+00  0.000E+00  0.000E+00  1.05868E+03  6.790E-01  1.542E+01  6.166E-02  1.226E+00
   1    7    7     5     2    1.0205E+01  2.7894E-01   9.9265E+00  0.000E+00  0.000E+00  0.000E+00  1.05417E+03  6.732E-01  1.519E+01  7.594E-02  1.224E+00
   1    8    7     5     3    9.9265E+00  1.9221E-01   9.7343E+00  0.000E+00  0.000E+00  0.000E+00  1.04992E+03  6.676E-01  1.497E+01  5.241E-02  1.223E+00
   1    8    6     5     4    9.7343E+00  1.3577E-01   9.5985E+00  0.000E+00  0.000E+00  0.000E+00  1.04691E+03  6.637E-01  1.482E+01  3.706E-02  1.221E+00
   1    9    6     6     1    9.5985E+00  2.2097E-01   9.3776E+00  0.000E+00  0.000E+00  0.000E+00  1.04341E+03  6.828E-01  1.200E+01  6.000E-02  1.228E+00
   1   10    7     6     2    9.3776E+00  2.2039E-01   9.1572E+00  0.000E+00  0.000E+00  0.000E+00  1.03885E+03  6.732E-01  1.200E+01  6.000E-02  1.224E+00
   1   11    7     6     3    9.1572E+00  2.1981E-01   8.9374E+00  0.000E+00  0.000E+00  0.000E+00  1.03430E+03  6.636E-01  1.200E+01  6.000E-02  1.221E+00
   1   12    7     6     4    8.9374E+00  2.1923E-01   8.7181E+00  0.000E+00  0.000E+00  0.000E+00  1.02974E+03  6.539E-01  1.200E+01  6.000E-02  1.218E+00
   1   13    7     6     5    8.7181E+00 -5.2950E-02   8.7711E+00  0.000E+00  0.000E+00  0.000E+00  1.02656E+03  6.502E-01  1.200E+01  2.400E-01 -7.354E-02
   1   14    9     7     1    1.5000E+02  1.3717E+00   1.4863E+02  0.000E+00  0.000E+00  0.000E+00  1.03987E+03  2.288E+00  5.529E+01  5.593E-01  8.175E-01
   1   13    8     7     2    1.4863E+02  1.9339E+00   1.4669E+02  0.000E+00  0.000E+00  0.000E+00  1.03478E+03  2.279E+00  5.525E+01  6.148E-01  1.049E+00
   1   13    7     7     3    1.4669E+02  1.6243E+00   1.4507E+02  0.000E+00  0.000E+00  0.000E+00  1.02969E+03  2.269E+00  5.521E+01  5.584E-01  9.696E-01
   1   13    6     8     1    1.5384E+02  9.8007E-01   1.5286E+02  0.000E+00  0.000E+00  0.000E+00  1.02472E+03  2.840E+00  4.118E+01  4.197E-01  7.784E-01
   1   13    5     8     2    1.5286E+02  2.4373E-01   1.5262E+02  0.000E+00  0.000E+00  0.000E+00  1.01846E+03  2.836E+00  4.112E+01  4.191E-01  1.939E-01
   1   13    4     8     3    1.5262E+02 -2.3313E+00   1.5495E+02  0.000E+00  0.000E+00  0.000E+00  1.01222E+03  2.843E+00  4.123E+01  4.201E+00 -1.850E-01
   1   13    3     8     4    1.5495E+02 -3.6906E+00   1.5864E+02  0.000E+00  0.000E+00  0.000E+00  1.00599E+03  2.864E+00  4.153E+01  4.232E+00 -2.907E-01
   1   13    2     8     5    1.5864E+02 -2.7775E+00   1.6142E+02  0.000E+00  0.000E+00  0.000E+00  9.99761E+02  2.886E+00  4.185E+01  4.264E+00 -2.171E-01
   1   13    1     8     6    1.6142E+02 -2.1200E+00   1.6354E+02  0.000E+00  0.000E+00  0.000E+00  9.94778E+02  2.903E+00  4.209E+01  2.573E+00 -2.746E-01
   1    8    6     9     1    1.7390E+01  0.0000E+00   1.7390E+01  0.000E+00  0.000E+00  0.000E+00  1.08191E+03  3.158E+00  4.000E+00  0.000E+00  2.053E+00
   1    8    5     9     2    1.7390E+01  0.0000E+00   1.7390E+01  0.000E+00  0.000E+00  0.000E+00  1.08141E+03  3.158E+00  4.000E+00  0.000E+00  2.053E+00



 UBDSV3 SAVING "           GW ET" ON UNIT  61 AT TIME STEP  1, STRESS PERIOD  19
 UBDSV3 SAVING "    UZF RECHARGE" ON UNIT  61 AT TIME STEP  1, STRESS PERIOD  19
 UBDSV3 SAVING " SURFACE LEAKAGE" ON UNIT  61 AT TIME STEP  1, STRESS PERIOD  19
 UBDSV3 SAVING "       HORT+DUNN" ON UNIT  61 AT TIME STEP  1, STRESS PERIOD  19
 UBDSV3 SAVING "  STORAGE CHANGE" ON UNIT  61 AT TIME STEP  1, STRESS PERIOD  19


UNSATURATED ZONE PACKAGE VOLUMETRIC BUDGET FOR  TIME STEP     1 STRESS PERIOD   19
  ------------------------------------------------------------------------------



     CUMULATIVE VOLUMES      L**3       RATES FOR THIS TIME STEP      L**3/T
     ------------------                 ------------------------

           IN:                                      IN:
           ---                                      ---
        INFILTRATION =   710825107.2371          INFILTRATION =          27.1681

          OUT:                                     OUT:
          ----                                     ----
              UZF ET =   569304255.7935                UZF ET =          26.6144
        UZF RECHARGE =      167968.6155          UZF RECHARGE =       0.0000E+00

            IN - OUT =   141352882.8281              IN - OUT =           0.5537

          STORAGE:                                 STORAGE:
          --------                                 --------
      STORAGE CHANGE =   141352873.9379        STORAGE CHANGE =           0.5537

 PERCENT DISCREPANCY IS DIFFERENCE BETWEEN IN-OUT MINUS CHANGE IN STORAGE
 DIVIDED BY THE AVERAGE OF IN AND OUT TIMES 100

 PERCENT DISCREPANCY =           0.00     PERCENT DISCREPANCY =           0.00






 

            AG WELLS      PERIOD   19   STEP   1
 AG WELL      1   LAYER   1   ROW     6   COL     4   RATE   -0.895021    
 AG WELL      2   LAYER   1   ROW     6   COL     5   RATE   -0.895021    
 AG WELL      3   LAYER   1   ROW     7   COL     4   RATE   -0.895021    
 AG WELL      4   LAYER   1   ROW     7   COL     5   RATE   -0.895021    
 AG WELL      5   LAYER   1   ROW     8   COL     4   RATE   -0.895021    
 AG WELL      6   LAYER   1   ROW     8   COL     5   RATE   -0.895021    
 
 

   DIVERSION SEGMENTS     PERIOD   19   STEP   1
 SEGMENT      9   RATE     17.3901    
 
 

        SW IRRIGATION     PERIOD   19   STEP   1
 SEGMENT      9   ROW     6   COL     4   RATE     2.89841    
 SEGMENT      9   ROW     6   COL     5   RATE     2.89841    
 SEGMENT      9   ROW     7   COL     4   RATE     2.89841    
 SEGMENT      9   ROW     7   COL     5   RATE     2.89841    
 SEGMENT      9   ROW     8   COL     4   RATE     2.89841    
 SEGMENT      9   ROW     8   COL     5   RATE     2.89841    
 
 

        GW IRRIGATION     PERIOD   19   STEP   1
 AG WELL      1   ROW     6   COL     4   RATE    0.895021    
 AG WELL      2   ROW     6   COL     5   RATE    0.895021    
 AG WELL      3   ROW     7   COL     4   RATE    0.895021    
 AG WELL      4   ROW     7   COL     5   RATE    0.895021    
 AG WELL      5   ROW     8   COL     4   RATE    0.895021    
 AG WELL      6   ROW     8   COL     5   RATE    0.895021    
 
1
  VOLUMETRIC BUDGET FOR AGRICULTURAL FIELDS AT  END OF TIME STEP    1, STRESS PERIOD  19
  ------------------------------------------------------------------------------

     CUMULATIVE VOLUMES      L**3       RATES FOR THIS TIME STEP      L**3/T
     ------------------                 ------------------------

           IN:                                      IN:
           ---                                      ---
               AG WELLS  =   267108256.0000                 AG WELLS  =           5.3701
      DIVERSION SEGMENTS =   246332432.0000        DIVERSION SEGMENTS =          17.3901
           GW IRRIGATION =           0.0000             GW IRRIGATION =           0.0000
           SW IRRIGATION =           0.0000             SW IRRIGATION =           0.0000
        SYSTEM LOSSES GW =           0.0000          SYSTEM LOSSES GW =           0.0000
        SYSTEM LOSSES SW =           0.0000          SYSTEM LOSSES SW =           0.0000

                TOTAL IN =   513440704.0000                  TOTAL IN =          22.7602

          OUT:                                     OUT:
          ----                                     ----
               AG WELLS  =           0.0000                 AG WELLS  =           0.0000
      DIVERSION SEGMENTS =           0.0000        DIVERSION SEGMENTS =           0.0000
           GW IRRIGATION =   267108256.0000             GW IRRIGATION =           5.3701
           SW IRRIGATION =   246337392.0000             SW IRRIGATION =          17.3904
        SYSTEM LOSSES GW =           0.0000          SYSTEM LOSSES GW =           0.0000
        SYSTEM LOSSES SW =           0.0000          SYSTEM LOSSES SW =           0.0000

               TOTAL OUT =   513445632.0000                 TOTAL OUT =          22.7606

                IN - OUT =       -4928.0000                  IN - OUT =      -3.4714E-04

     PERCENT DISCREPANCY =          -0.00         PERCENT DISCREPANCY =          -0.00



1
  VOLUMETRIC BUDGET FOR ENTIRE MODEL AT END OF TIME STEP    1, STRESS PERIOD  19
  ------------------------------------------------------------------------------

     CUMULATIVE VOLUMES      L**3       RATES FOR THIS TIME STEP      L**3/T
     ------------------                 ------------------------

           IN:                                      IN:
           ---                                      ---
             STORAGE     =   425776320.0000               STORAGE     =           6.6367
       CONSTANT HEAD     =           0.0000         CONSTANT HEAD     =           0.0000
     HEAD DEP BOUNDS     =    12926235.0000       HEAD DEP BOUNDS     =           0.2882
      STREAM LEAKAGE     =   528873696.0000        STREAM LEAKAGE     =          11.8713
        UZF RECHARGE     =      167968.5625          UZF RECHARGE     =           0.0000
               GW ET     =           0.0000                 GW ET     =           0.0000
     SURFACE LEAKAGE     =           0.0000       SURFACE LEAKAGE     =           0.0000
           AG WELLS      =           0.0000             AG WELLS      =           0.0000

                TOTAL IN =   967744256.0000                  TOTAL IN =          18.7963

          OUT:                                     OUT:
          ----                                     ----
             STORAGE     =   228258528.0000               STORAGE     =           2.1651
       CONSTANT HEAD     =           0.0000         CONSTANT HEAD     =           0.0000
     HEAD DEP BOUNDS     =    12936801.0000       HEAD DEP BOUNDS     =           0.2889
      STREAM LEAKAGE     =   459446816.0000        STREAM LEAKAGE     =          10.9724
        UZF RECHARGE     =           0.0000          UZF RECHARGE     =           0.0000
               GW ET     =           0.0000                 GW ET     =           0.0000
     SURFACE LEAKAGE     =           0.0000       SURFACE LEAKAGE     =           0.0000
           AG WELLS      =   267108256.0000             AG WELLS      =           5.3701

               TOTAL OUT =   967750400.0000                 TOTAL OUT =          18.7965

                IN - OUT =       -6144.0000                  IN - OUT =      -2.3079E-04

     PERCENT DISCREPANCY =          -0.00         PERCENT DISCREPANCY =          -0.00






         TIME SUMMARY AT END OF TIME STEP    1 IN STRESS PERIOD   19
                    SECONDS     MINUTES      HOURS       DAYS        YEARS
                    -----------------------------------------------------------
   TIME STEP LENGTH  87667.      1461.1      24.352      1.0147     2.77799E-03
 STRESS PERIOD TIME  87667.      1461.1      24.352      1.0147     2.77799E-03
         TOTAL TIME 4.48841E+07 7.48069E+05  12468.      519.49      1.4223    
1
 
 SOLVING FOR HEAD 
                                                   Max.-Head-Change                         Max.-Flux-Residual
  Residual-Control   Outer-Iter.   Inner-Iter.     Column Row Layer    Maximum-Head-Change  Column Row Layer    Maximum-Flux-Residual          L2-NORM 
          0                 1           2             4    7     1       0.4522179907E-02       4    7    1         0.2359267285E+00      0.7452757460E+00
          0                 2           2             4    7     1      -0.2234238090E-01       4    7    1        -0.1199852565E+01      0.2951227582E+01
          0                 3           2             4    7     1       0.1710658912E-01       4    7    1         0.9443794275E+00      0.2327133586E+01
          0                 4           2             4    7     1       0.2883610063E-02       5    6    1         0.1591996322E+00      0.3955667495E+00
          0                 5           2             4    7     1       0.1217596036E-02       4    7    1         0.6721702067E-01      0.1664581171E+00
          0                 6           2             4    7     1       0.4511563096E-03       5    6    1         0.2490572708E-01      0.6167105508E-01
          0                 7           2             4    7     1       0.1698606824E-03       4    7    1         0.9376928455E-02      0.2322150239E-01
          0                 8           1             4    7     1       0.6389361808E-04       5    6    1         0.3527126635E-02      0.8733465521E-02

    ------------------------------------------------
       NWT REQUIRED            8 OUTER ITERATIONS 
       AND A TOTAL OF         15 INNER ITERATIONS.
    ------------------------------------------------

 NO OUTPUT CONTROL FOR STRESS PERIOD   19   TIME STEP    2
 
 SOLVING FOR HEAD 
                                                   Max.-Head-Change                         Max.-Flux-Residual
  Residual-Control   Outer-Iter.   Inner-Iter.     Column Row Layer    Maximum-Head-Change  Column Row Layer    Maximum-Flux-Residual          L2-NORM 
          0                 1           2             4    7     1       0.4503437221E-02       4    7    1         0.2349738971E+00      0.7531425498E+00
          0                 2           2             4    7     1      -0.4117104739E-01       4    7    1        -0.2211037222E+01      0.5438985589E+01
          0                 3           2             4    7     1       0.1545925175E-01       4    7    1         0.8534366944E+00      0.2094371844E+01
          0                 4           2             4    7     1      -0.6151420490E-03       4    7    1        -0.3490585176E-01      0.8596502862E-01
          0                 5           1             4    7     1       0.7584961505E-05       4    7    1         0.4423643359E-03      0.1141533952E-02

    ------------------------------------------------
       NWT REQUIRED            5 OUTER ITERATIONS 
       AND A TOTAL OF          9 INNER ITERATIONS.
    ------------------------------------------------

 NO OUTPUT CONTROL FOR STRESS PERIOD   19   TIME STEP    3
 
 SOLVING FOR HEAD 
                                                   Max.-Head-Change                         Max.-Flux-Residual
  Residual-Control   Outer-Iter.   Inner-Iter.     Column Row Layer    Maximum-Head-Change  Column Row Layer    Maximum-Flux-Residual          L2-NORM 
          0                 1           2             4    6     1       0.4713686768E-02       4    6    1         0.2475046287E+00      0.7885545650E+00
          0                 2           2             4    7     1      -0.3597643779E-01       4    6    1        -0.1932549136E+01      0.4757521381E+01
          0                 3           2             4    7     1       0.2017291543E-01       4    8    1         0.1113658926E+01      0.2734945745E+01
          0                 4           2             4    7     1      -0.8028285870E-03       7   13    1        -0.4704939705E-01      0.1222458184E+00
          0                 5           1             4    7     1       0.9899213553E-05       7   13    1         0.5951374678E-03      0.1658617649E-02

    ------------------------------------------------
       NWT REQUIRED            5 OUTER ITERATIONS 
       AND A TOTAL OF          9 INNER ITERATIONS.
    ------------------------------------------------

 NO OUTPUT CONTROL FOR STRESS PERIOD   19   TIME STEP    4
 
 SOLVING FOR HEAD 
                                                   Max.-Head-Change                         Max.-Flux-Residual
  Residual-Control   Outer-Iter.   Inner-Iter.     Column Row Layer    Maximum-Head-Change  Column Row Layer    Maximum-Flux-Residual          L2-NORM 
          0                 1           2             4    6     1       0.4995364077E-02       5    8    1         0.2649930582E+00      0.8166946061E+00
          0                 2           2             4    7     1      -0.3561908530E-01       5    8    1        -0.1914610954E+01      0.4713042926E+01
          0                 3           2             4    7     1       0.2050509469E-01       5    8    1         0.1132114203E+01      0.2780111502E+01
          0                 4           2             4    7     1      -0.8159434774E-03       7   13    1        -0.4678427090E-01      0.1237030608E+00
          0                 5           1             4    7     1       0.1006092556E-04       7   13    1         0.5918566794E-03      0.1680267717E-02

    ------------------------------------------------
       NWT REQUIRED            5 OUTER ITERATIONS 
       AND A TOTAL OF          9 INNER ITERATIONS.
    ------------------------------------------------

 NO OUTPUT CONTROL FOR STRESS PERIOD   19   TIME STEP    5
 
 SOLVING FOR HEAD 
                                                   Max.-Head-Change                         Max.-Flux-Residual
  Residual-Control   Outer-Iter.   Inner-Iter.     Column Row Layer    Maximum-Head-Change  Column Row Layer    Maximum-Flux-Residual          L2-NORM 
          0                 1           2             5    8     1       0.5345309263E-02       5    8    1         0.2847748341E+00      0.8451088302E+00
          0                 2           2             4    7     1      -0.2301535671E-01       5    8    1        -0.1239213470E+01      0.3050279771E+01
          0                 3           2             4    7     1       0.1807622144E-01       5    8    1         0.9981322129E+00      0.2458744754E+01
          0                 4           2             4    7     1       0.2607858728E-02       4    6    1         0.1439676865E+00      0.3584239152E+00
          0                 5           2             4    7     1       0.1171294720E-02       5    8    1         0.6466126761E-01      0.1601315209E+00
          0                 6           2             4    7     1       0.4426461389E-03       4    6    1         0.2443588048E-01      0.6052596145E-01
          0                 7           1             4    7     1      -0.1255052547E-04       4    6    1        -0.7121525241E-03      0.2023755643E-02

    ------------------------------------------------
       NWT REQUIRED            7 OUTER ITERATIONS 
       AND A TOTAL OF         13 INNER ITERATIONS.
    ------------------------------------------------

 NO OUTPUT CONTROL FOR STRESS PERIOD   19   TIME STEP    6
 
 SOLVING FOR HEAD 
                                                   Max.-Head-Change                         Max.-Flux-Residual
  Residual-Control   Outer-Iter.   Inner-Iter.     Column Row Layer    Maximum-Head-Change  Column Row Layer    Maximum-Flux-Residual          L2-NORM 
          0                 1           2             5    8     1       0.5227299128E-02       5    8    1         0.2782443976E+00      0.8499363057E+00
          0                 2           2             4    7     1      -0.4118570265E-01       5    8    1        -0.2214370592E+01      0.5450406746E+01
          0                 3           2             4    7     1       0.1547812039E-01       5    8    1         0.8546618586E+00      0.2097054115E+01
          0                 4           2             4    7     1      -0.6158928270E-03       5    8    1        -0.3495622781E-01      0.8607361535E-01
          0                 5           1             4    7     1       0.7594219307E-05       5    8    1         0.4430023464E-03      0.1142777971E-02

    ------------------------------------------------
       NWT REQUIRED            5 OUTER ITERATIONS 
       AND A TOTAL OF          9 INNER ITERATIONS.
    ------------------------------------------------

 NO OUTPUT CONTROL FOR STRESS PERIOD   19   TIME STEP    7
 
 SOLVING FOR HEAD 
                                                   Max.-Head-Change                         Max.-Flux-Residual
  Residual-Control   Outer-Iter.   Inner-Iter.     Column Row Layer    Maximum-Head-Change  Column Row Layer    Maximum-Flux-Residual          L2-NORM 
          0                 1           2             5    8     1       0.5887511162E-02       5    8    1         0.3145706429E+00      0.8956779896E+00
          0                 2           2             4    7     1      -0.3595991778E-01       5    8    1        -0.1936481087E+01      0.4763967894E+01
          0                 3           2             4    7     1       0.2022208649E-01       5    8    1         0.1116732765E+01      0.2742208900E+01
          0                 4           2             4    7     1      -0.8046624457E-03       7   13    1        -0.4603792611E-01      0.1219274063E+00
          0                 5           1             4    7     1       0.9921825876E-05       7   13    1         0.5824269901E-03      0.1654891179E-02

    ------------------------------------------------
       NWT REQUIRED            5 OUTER ITERATIONS 
       AND A TOTAL OF          9 INNER ITERATIONS.
    ------------------------------------------------

 NO OUTPUT CONTROL FOR STRESS PERIOD   19   TIME STEP    8
 
 SOLVING FOR HEAD 
                                                   Max.-Head-Change                         Max.-Flux-Residual
  Residual-Control   Outer-Iter.   Inner-Iter.     Column Row Layer    Maximum-Head-Change  Column Row Layer    Maximum-Flux-Residual          L2-NORM 
          0                 1           2             5    8     1       0.6216309010E-02       5    8    1         0.3326221437E+00      0.9256218214E+00
          0                 2           2             4    7     1      -0.3564191627E-01       5    8    1        -0.1920632308E+01      0.4723938383E+01
          0                 3           2             4    7     1       0.2052022757E-01       5    8    1         0.1133277335E+01      0.2782867902E+01
          0                 4           2             4    7     1      -0.8165259566E-03       5    8    1        -0.4635200285E-01      0.1233932856E+00
          0                 5           1             4    7     1       0.1006810784E-04       5    8    1         0.5874213257E-03      0.1676629249E-02

    ------------------------------------------------
       NWT REQUIRED            5 OUTER ITERATIONS 
       AND A TOTAL OF          9 INNER ITERATIONS.
    ------------------------------------------------

 NO OUTPUT CONTROL FOR STRESS PERIOD   19   TIME STEP    9
 
 SOLVING FOR HEAD 
                                                   Max.-Head-Change                         Max.-Flux-Residual
  Residual-Control   Outer-Iter.   Inner-Iter.     Column Row Layer    Maximum-Head-Change  Column Row Layer    Maximum-Flux-Residual          L2-NORM 
          0                 1           2             5    8     1       0.6509150779E-02       5    8    1         0.3486827733E+00      0.9541533612E+00
          0                 2           2             4    7     1      -0.3543531523E-01       5    8    1        -0.1910568866E+01      0.4698345980E+01
          0                 3           2             4    7     1       0.2071755002E-01       5    8    1         0.1144242378E+01      0.2809802106E+01
          0                 4           2             4    7     1      -0.8243777338E-03       5    8    1        -0.4680049119E-01      0.1243396474E+00
          0                 5           1             4    7     1       0.1016492338E-04       5    8    1         0.5931050305E-03      0.1690006154E-02

    ------------------------------------------------
       NWT REQUIRED            5 OUTER ITERATIONS 
       AND A TOTAL OF          9 INNER ITERATIONS.
    ------------------------------------------------

 NO OUTPUT CONTROL FOR STRESS PERIOD   19   TIME STEP   10
 
 SOLVING FOR HEAD 
                                                   Max.-Head-Change                         Max.-Flux-Residual
  Residual-Control   Outer-Iter.   Inner-Iter.     Column Row Layer    Maximum-Head-Change  Column Row Layer    Maximum-Flux-Residual          L2-NORM 
          0                 1           2             5    8     1       0.6774621034E-02       5    8    1         0.3632274239E+00      0.9814106236E+00
          0                 2           2             4    7     1      -0.3531061558E-01       5    8    1        -0.1904750979E+01      0.4683352254E+01
          0                 3           2             4    7     1       0.2084080054E-01       5    8    1         0.1151107564E+01      0.2826651291E+01
          0                 4           2             4    7     1      -0.8292820706E-03       5    8    1        -0.4708128868E-01      0.1249028881E+00
          0                 5           1             4    7     1       0.1022539594E-04       5    8    1         0.5966635781E-03      0.1698157028E-02

    ------------------------------------------------
       NWT REQUIRED            5 OUTER ITERATIONS 
       AND A TOTAL OF          9 INNER ITERATIONS.
    ------------------------------------------------

 NO OUTPUT CONTROL FOR STRESS PERIOD   19   TIME STEP   11
 
 SOLVING FOR HEAD 
                                                   Max.-Head-Change                         Max.-Flux-Residual
  Residual-Control   Outer-Iter.   Inner-Iter.     Column Row Layer    Maximum-Head-Change  Column Row Layer    Maximum-Flux-Residual          L2-NORM 
          0                 1           2             5    8     1       0.7018977841E-02       5    8    1         0.3766025368E+00      0.1007540218E+01
          0                 2           2             4    7     1      -0.3523737852E-01       5    8    1        -0.1901575952E+01      0.4674977126E+01
          0                 3           2             4    7     1       0.2091756017E-01       5    8    1         0.1155397749E+01      0.2837167695E+01
          0                 4           2             4    7     1      -0.8323364600E-03       5    8    1        -0.4725676445E-01      0.1252255980E+00
          0                 5           1             4    7     1       0.1026305757E-04       5    8    1         0.5988873791E-03      0.1703248051E-02

    ------------------------------------------------
       NWT REQUIRED            5 OUTER ITERATIONS 
       AND A TOTAL OF          9 INNER ITERATIONS.
    ------------------------------------------------

 NO OUTPUT CONTROL FOR STRESS PERIOD   19   TIME STEP   12
 
 SOLVING FOR HEAD 
                                                   Max.-Head-Change                         Max.-Flux-Residual
  Residual-Control   Outer-Iter.   Inner-Iter.     Column Row Layer    Maximum-Head-Change  Column Row Layer    Maximum-Flux-Residual          L2-NORM 
          0                 1           2             5    8     1       0.7246391991E-02       5    8    1         0.3890387124E+00      0.1032658572E+01
          0                 2           2             4    7     1      -0.3519621106E-01       5    8    1        -0.1900024718E+01      0.4670690477E+01
          0                 3           2             4    7     1       0.2097207250E-01       5    8    1         0.1158084088E+01      0.2843629252E+01
          0                 4           2             4    7     1      -0.8410047431E-03       4    7    1        -0.4774211405E-01      0.1255530153E+00
          0                 5           1             4    7     1       0.1036994067E-04       4    7    1         0.6050804150E-03      0.1708188443E-02

    ------------------------------------------------
       NWT REQUIRED            5 OUTER ITERATIONS 
       AND A TOTAL OF          9 INNER ITERATIONS.
    ------------------------------------------------

 NO OUTPUT CONTROL FOR STRESS PERIOD   19   TIME STEP   13
 
 SOLVING FOR HEAD 
                                                   Max.-Head-Change                         Max.-Flux-Residual
  Residual-Control   Outer-Iter.   Inner-Iter.     Column Row Layer    Maximum-Head-Change  Column Row Layer    Maximum-Flux-Residual          L2-NORM 
          0                 1           2             5    8     1       0.7459877750E-02       5    8    1         0.4007031679E+00      0.1056848057E+01
          0                 2           2             4    7     1      -0.3517504593E-01       5    8    1        -0.1899465856E+01      0.4668918680E+01
          0                 3           2             4    7     1       0.2099552385E-01       5    8    1         0.1159770344E+01      0.2847594920E+01
          0                 4           2             4    7     1      -0.8357419337E-03       5    8    1        -0.4743561093E-01      0.1254868758E+00
          0                 5           1             4    7     1       0.1030504846E-04       5    8    1         0.6011539181E-03      0.1707503470E-02

    ------------------------------------------------
       NWT REQUIRED            5 OUTER ITERATIONS 
       AND A TOTAL OF          9 INNER ITERATIONS.
    ------------------------------------------------

 NO OUTPUT CONTROL FOR STRESS PERIOD   19   TIME STEP   14
 
 SOLVING FOR HEAD 
                                                   Max.-Head-Change                         Max.-Flux-Residual
  Residual-Control   Outer-Iter.   Inner-Iter.     Column Row Layer    Maximum-Head-Change  Column Row Layer    Maximum-Flux-Residual          L2-NORM 
          0                 1           2             5    8     1       0.7661094770E-02       5    8    1         0.4116883114E+00      0.1080169697E+01
          0                 2           2             4    7     1      -0.3516619212E-01       5    8    1        -0.1899494834E+01      0.4668658927E+01
          0                 3           2             4    7     1       0.2100808323E-01       5    8    1         0.1160841918E+01      0.2850055873E+01
          0                 4           2             4    7     1      -0.8359340751E-03       5    8    1        -0.4747944013E-01      0.1254887859E+00
          0                 5           1             4    7     1       0.1030742507E-04       5    8    1         0.6017093642E-03      0.1707540090E-02

    ------------------------------------------------
       NWT REQUIRED            5 OUTER ITERATIONS 
       AND A TOTAL OF          9 INNER ITERATIONS.
    ------------------------------------------------

 NO OUTPUT CONTROL FOR STRESS PERIOD   19   TIME STEP   15
 
 SOLVING FOR HEAD 
                                                   Max.-Head-Change                         Max.-Flux-Residual
  Residual-Control   Outer-Iter.   Inner-Iter.     Column Row Layer    Maximum-Head-Change  Column Row Layer    Maximum-Flux-Residual          L2-NORM 
          0                 1           2             5    8     1       0.7851699290E-02       5    8    1         0.4220858135E+00      0.1102587730E+01
          0                 2           2             4    7     1      -0.3518348485E-01       5    8    1        -0.1899872385E+01      0.4669296618E+01
          0                 3           2             4    7     1       0.2103732842E-01       5    8    1         0.1161530493E+01      0.2852134089E+01
          0                 4           2             4    7     1      -0.8370977998E-03       5    8    1        -0.4750760399E-01      0.1254945164E+00
          0                 5           1             4    7     1       0.1032177395E-04       5    8    1         0.6020662800E-03      0.1707449353E-02

    ------------------------------------------------
       NWT REQUIRED            5 OUTER ITERATIONS 
       AND A TOTAL OF          9 INNER ITERATIONS.
    ------------------------------------------------

 NO OUTPUT CONTROL FOR STRESS PERIOD   19   TIME STEP   16
 
 SOLVING FOR HEAD 
                                                   Max.-Head-Change                         Max.-Flux-Residual
  Residual-Control   Outer-Iter.   Inner-Iter.     Column Row Layer    Maximum-Head-Change  Column Row Layer    Maximum-Flux-Residual          L2-NORM 
          0                 1           2             5    8     1       0.8032676234E-02       5    8    1         0.4319506089E+00      0.1124219019E+01
          0                 2           2             4    7     1      -0.3519036240E-01       5    8    1        -0.1900658124E+01      0.4670986364E+01
          0                 3           2             4    7     1       0.2104143825E-01       5    8    1         0.1161773273E+01      0.2852725793E+01
          0                 4           2             4    7     1      -0.8372613341E-03       5    8    1        -0.4750943050E-01      0.1254402457E+00
          0                 5           1             4    7     1       0.1032379055E-04       4    6    1         0.6020349529E-03      0.1708056012E-02

    ------------------------------------------------
       NWT REQUIRED            5 OUTER ITERATIONS 
       AND A TOTAL OF          9 INNER ITERATIONS.
    ------------------------------------------------

 NO OUTPUT CONTROL FOR STRESS PERIOD   19   TIME STEP   17
 
 SOLVING FOR HEAD 
                                                   Max.-Head-Change                         Max.-Flux-Residual
  Residual-Control   Outer-Iter.   Inner-Iter.     Column Row Layer    Maximum-Head-Change  Column Row Layer    Maximum-Flux-Residual          L2-NORM 
          0                 1           2             5    8     1       0.8205147255E-02       5    8    1         0.4413449694E+00      0.1145112953E+01
          0                 2           2             4    7     1      -0.3520888200E-01       5    8    1        -0.1902016827E+01      0.4674127070E+01
          0                 3           2             4    7     1       0.2103510273E-01       5    6    1         0.1161439153E+01      0.2851902073E+01
          0                 4           2             4    7     1      -0.8370092354E-03       5    6    1        -0.4749580193E-01      0.1253358611E+00
          0                 5           1             4    7     1       0.1032068203E-04       4    6    1         0.6018622789E-03      0.1706882299E-02

    ------------------------------------------------
       NWT REQUIRED            5 OUTER ITERATIONS 
       AND A TOTAL OF          9 INNER ITERATIONS.
    ------------------------------------------------

 NO OUTPUT CONTROL FOR STRESS PERIOD   19   TIME STEP   18
 
 SOLVING FOR HEAD 
                                                   Max.-Head-Change                         Max.-Flux-Residual
  Residual-Control   Outer-Iter.   Inner-Iter.     Column Row Layer    Maximum-Head-Change  Column Row Layer    Maximum-Flux-Residual          L2-NORM 
          0                 1           2             5    8     1       0.8370195934E-02       5    8    1         0.4503289642E+00      0.1165340266E+01
          0                 2           2             4    7     1      -0.3519251777E-01       5    8    1        -0.1901457542E+01      0.4672583802E+01
          0                 3           2             4    7     1       0.2106041109E-01       5    6    1         0.1162858590E+01      0.2855378595E+01
          0                 4           2             4    7     1      -0.8380162849E-03       5    6    1        -0.4755386530E-01      0.1254009066E+00
          0                 5           1             4    7     1       0.1033309988E-04       4    6    1         0.6025934840E-03      0.1707697830E-02

    ------------------------------------------------
       NWT REQUIRED            5 OUTER ITERATIONS 
       AND A TOTAL OF          9 INNER ITERATIONS.
    ------------------------------------------------

 NO OUTPUT CONTROL FOR STRESS PERIOD   19   TIME STEP   19
 
 SOLVING FOR HEAD 
                                                   Max.-Head-Change                         Max.-Flux-Residual
  Residual-Control   Outer-Iter.   Inner-Iter.     Column Row Layer    Maximum-Head-Change  Column Row Layer    Maximum-Flux-Residual          L2-NORM 
          0                 1           2             5    8     1       0.8526450341E-02       5    8    1         0.4588272408E+00      0.1184771960E+01
          0                 2           2             4    7     1      -0.3520953623E-01       5    8    1        -0.1902640686E+01      0.4675367841E+01
          0                 3           2             4    7     1       0.2105553231E-01       5    8    1         0.1162606473E+01      0.2854741865E+01
          0                 4           2             4    7     1      -0.8378221518E-03       5    8    1        -0.4753642023E-01      0.1252979991E+00
          0                 5           1             4    7     1       0.1033070579E-04       4    7    1         0.6021523877E-03      0.1703365493E-02

    ------------------------------------------------
       NWT REQUIRED            5 OUTER ITERATIONS 
       AND A TOTAL OF          9 INNER ITERATIONS.
    ------------------------------------------------

 NO OUTPUT CONTROL FOR STRESS PERIOD   19   TIME STEP   20
 
 SOLVING FOR HEAD 
                                                   Max.-Head-Change                         Max.-Flux-Residual
  Residual-Control   Outer-Iter.   Inner-Iter.     Column Row Layer    Maximum-Head-Change  Column Row Layer    Maximum-Flux-Residual          L2-NORM 
          0                 1           2             5    8     1       0.8676175729E-02       5    8    1         0.4669650818E+00      0.1203575891E+01
          0                 2           2             4    7     1      -0.3522699147E-01       5    8    1        -0.1903809602E+01      0.4678145573E+01
          0                 3           2             4    7     1       0.2105028901E-01       5    8    1         0.1162333523E+01      0.2854057182E+01
          0                 4           2             4    7     1      -0.8376135141E-03       5    8    1        -0.4752528939E-01      0.1252049433E+00
          0                 5           1             4    7     1       0.1032813315E-04       4    7    1         0.6020021638E-03      0.1701059555E-02

    ------------------------------------------------
       NWT REQUIRED            5 OUTER ITERATIONS 
       AND A TOTAL OF          9 INNER ITERATIONS.
    ------------------------------------------------

 NO OUTPUT CONTROL FOR STRESS PERIOD   19   TIME STEP   21
 
 SOLVING FOR HEAD 
                                                   Max.-Head-Change                         Max.-Flux-Residual
  Residual-Control   Outer-Iter.   Inner-Iter.     Column Row Layer    Maximum-Head-Change  Column Row Layer    Maximum-Flux-Residual          L2-NORM 
          0                 1           2             5    8     1       0.8819651014E-02       5    8    1         0.4747578896E+00      0.1221780388E+01
          0                 2           2             4    7     1      -0.3524491012E-01       5    8    1        -0.1904967378E+01      0.4680924009E+01
          0                 3           2             4    7     1       0.2104465384E-01       5    8    1         0.1162036413E+01      0.2853315417E+01
          0                 4           2             4    7     1      -0.8373892836E-03       5    8    1        -0.4751316902E-01      0.1251114842E+00
          0                 5           1             4    7     1       0.1032536862E-04       4    7    1         0.6018407735E-03      0.1700663557E-02

    ------------------------------------------------
       NWT REQUIRED            5 OUTER ITERATIONS 
       AND A TOTAL OF          9 INNER ITERATIONS.
    ------------------------------------------------

 NO OUTPUT CONTROL FOR STRESS PERIOD   19   TIME STEP   22
 
 SOLVING FOR HEAD 
                                                   Max.-Head-Change                         Max.-Flux-Residual
  Residual-Control   Outer-Iter.   Inner-Iter.     Column Row Layer    Maximum-Head-Change  Column Row Layer    Maximum-Flux-Residual          L2-NORM 
          0                 1           2             5    8     1       0.8957560507E-02       5    8    1         0.4822438281E+00      0.1239402449E+01
          0                 2           2             4    7     1      -0.3526338186E-01       5    8    1        -0.1906124151E+01      0.4683719886E+01
          0                 3           2             4    7     1       0.2103851730E-01       5    8    1         0.1161709474E+01      0.2852502727E+01
          0                 4           2             4    7     1      -0.8371451028E-03       5    8    1        -0.4749982750E-01      0.1250166714E+00
          0                 5           1             4    7     1       0.1032235744E-04       4    7    1         0.6016650618E-03      0.1698726298E-02

    ------------------------------------------------
       NWT REQUIRED            5 OUTER ITERATIONS 
       AND A TOTAL OF          9 INNER ITERATIONS.
    ------------------------------------------------

 NO OUTPUT CONTROL FOR STRESS PERIOD   19   TIME STEP   23
 
 SOLVING FOR HEAD 
                                                   Max.-Head-Change                         Max.-Flux-Residual
  Residual-Control   Outer-Iter.   Inner-Iter.     Column Row Layer    Maximum-Head-Change  Column Row Layer    Maximum-Flux-Residual          L2-NORM 
          0                 1           2             5    8     1       0.9090127714E-02       5    8    1         0.4894351671E+00      0.1256483695E+01
          0                 2           2             4    7     1      -0.3528276974E-01       5    8    1        -0.1907300578E+01      0.4686587406E+01
          0                 3           2             4    7     1       0.2103155302E-01       5    8    1         0.1161334782E+01      0.2851572859E+01
          0                 4           2             4    7     1      -0.8368679853E-03       5    8    1        -0.4748453196E-01      0.1249181132E+00
          0                 5           1             4    7     1       0.1031894042E-04       4    7    1         0.6014656965E-03      0.1697025874E-02

    ------------------------------------------------
       NWT REQUIRED            5 OUTER ITERATIONS 
       AND A TOTAL OF          9 INNER ITERATIONS.
    ------------------------------------------------

 NO OUTPUT CONTROL FOR STRESS PERIOD   19   TIME STEP   24
 
 SOLVING FOR HEAD 
                                                   Max.-Head-Change                         Max.-Flux-Residual
  Residual-Control   Outer-Iter.   Inner-Iter.     Column Row Layer    Maximum-Head-Change  Column Row Layer    Maximum-Flux-Residual          L2-NORM 
          0                 1           2             5    8     1       0.9217576351E-02       5    8    1         0.4963447008E+00      0.1273035601E+01
          0                 2           2             4    7     1      -0.3527032054E-01       5    8    1        -0.1906741270E+01      0.4685203486E+01
          0                 3           2             4    7     1       0.2105336883E-01       5    8    1         0.1162546157E+01      0.2854551980E+01
          0                 4           2             4    7     1      -0.8377360621E-03       5    8    1        -0.4753408873E-01      0.1249732360E+00
          0                 5           1             4    7     1       0.1032964423E-04       4    7    1         0.6020894407E-03      0.1697299342E-02

    ------------------------------------------------
       NWT REQUIRED            5 OUTER ITERATIONS 
       AND A TOTAL OF          9 INNER ITERATIONS.
    ------------------------------------------------

 NO OUTPUT CONTROL FOR STRESS PERIOD   19   TIME STEP   25
 
 SOLVING FOR HEAD 
                                                   Max.-Head-Change                         Max.-Flux-Residual
  Residual-Control   Outer-Iter.   Inner-Iter.     Column Row Layer    Maximum-Head-Change  Column Row Layer    Maximum-Flux-Residual          L2-NORM 
          0                 1           2             5    8     1       0.9338566286E-02       5    8    1         0.5028985050E+00      0.1288944413E+01
          0                 2           2             4    7     1      -0.3528829510E-01       5    8    1        -0.1907783013E+01      0.4687784016E+01
          0                 3           2             4    7     1       0.2104759280E-01       5    8    1         0.1162232878E+01      0.2853777915E+01
          0                 4           2             4    7     1      -0.8375062268E-03       5    8    1        -0.4752130146E-01      0.1248839724E+00
          0                 5           1             4    7     1       0.1032681003E-04       4    7    1         0.6019241096E-03      0.1697816108E-02

    ------------------------------------------------
       NWT REQUIRED            5 OUTER ITERATIONS 
       AND A TOTAL OF          9 INNER ITERATIONS.
    ------------------------------------------------

 NO OUTPUT CONTROL FOR STRESS PERIOD   19   TIME STEP   26
 
 SOLVING FOR HEAD 
                                                   Max.-Head-Change                         Max.-Flux-Residual
  Residual-Control   Outer-Iter.   Inner-Iter.     Column Row Layer    Maximum-Head-Change  Column Row Layer    Maximum-Flux-Residual          L2-NORM 
          0                 1           2             5    8     1       0.9455027257E-02       5    8    1         0.5092033743E+00      0.1304366440E+01
          0                 2           2             4    7     1      -0.3530675760E-01       5    8    1        -0.1908827996E+01      0.4690388476E+01
          0                 3           2             4    7     1       0.2104148640E-01       5    8    1         0.1161891682E+01      0.2852913175E+01
          0                 4           2             4    8     1      -0.8382794420E-03       4    8    1        -0.4812872596E-01      0.1250354303E+00
          0                 5           1             4    8     1       0.1033629320E-04       4    8    1         0.6096530383E-03      0.1700038156E-02

    ------------------------------------------------
       NWT REQUIRED            5 OUTER ITERATIONS 
       AND A TOTAL OF          9 INNER ITERATIONS.
    ------------------------------------------------

 NO OUTPUT CONTROL FOR STRESS PERIOD   19   TIME STEP   27
 
 SOLVING FOR HEAD 
                                                   Max.-Head-Change                         Max.-Flux-Residual
  Residual-Control   Outer-Iter.   Inner-Iter.     Column Row Layer    Maximum-Head-Change  Column Row Layer    Maximum-Flux-Residual          L2-NORM 
          0                 1           2             5    8     1       0.9567394323E-02       5    8    1         0.5152830382E+00      0.1319341503E+01
          0                 2           2             4    7     1      -0.3532581928E-01       5    8    1        -0.1909885029E+01      0.4693035980E+01
          0                 3           2             4    7     1       0.2103459312E-01       5    8    1         0.1161516866E+01      0.2851894530E+01
          0                 4           2             4    7     1      -0.8370758073E-03       4    8    1        -0.4786825734E-01      0.1248473181E+00
          0                 5           1             4    7     1       0.1032150310E-04       4    8    1         0.6062958014E-03      0.1696194397E-02

    ------------------------------------------------
       NWT REQUIRED            5 OUTER ITERATIONS 
       AND A TOTAL OF          9 INNER ITERATIONS.
    ------------------------------------------------

 NO OUTPUT CONTROL FOR STRESS PERIOD   19   TIME STEP   28
 
 SOLVING FOR HEAD 
                                                   Max.-Head-Change                         Max.-Flux-Residual
  Residual-Control   Outer-Iter.   Inner-Iter.     Column Row Layer    Maximum-Head-Change  Column Row Layer    Maximum-Flux-Residual          L2-NORM 
          0                 1           2             5    8     1       0.9675445847E-02       5    8    1         0.5211447182E+00      0.1321609931E+01
          0                 2           2             4    7     1      -0.3534561913E-01       5    8    1        -0.1910964132E+01      0.4695359170E+01
          0                 3           2             4    7     1       0.1909129791E-01       5    8    1         0.1054301002E+01      0.2588020909E+01
          0                 4           2             4    7     1      -0.7596811532E-03       4    8    1        -0.4318010647E-01      0.1144933516E+00
          0                 5           1             4    7     1       0.9367193937E-05       4    8    1         0.5468775862E-03      0.1550435153E-02

    ------------------------------------------------
       NWT REQUIRED            5 OUTER ITERATIONS 
       AND A TOTAL OF          9 INNER ITERATIONS.
    ------------------------------------------------

 NO OUTPUT CONTROL FOR STRESS PERIOD   19   TIME STEP   29
 
 SOLVING FOR HEAD 
                                                   Max.-Head-Change                         Max.-Flux-Residual
  Residual-Control   Outer-Iter.   Inner-Iter.     Column Row Layer    Maximum-Head-Change  Column Row Layer    Maximum-Flux-Residual          L2-NORM 
          0                 1           2             5    8     1       0.9835493409E-02       5    8    1         0.5298747495E+00      0.1325940153E+01
          0                 2           2             4    7     1      -0.3533642289E-01       5    8    1        -0.1910720032E+01      0.4694073937E+01
          0                 3           2             4    7     1       0.1668536588E-01       5    8    1         0.9215766550E+00      0.2261612869E+01
          0                 4           2             4    7     1      -0.6639280485E-03       5    8    1        -0.3768122182E-01      0.9288091240E-01
          0                 5           1             4    7     1       0.8186518026E-05       4    7    1         0.4771706717E-03      0.1243945341E-02

    ------------------------------------------------
       NWT REQUIRED            5 OUTER ITERATIONS 
       AND A TOTAL OF          9 INNER ITERATIONS.
    ------------------------------------------------

 NO OUTPUT CONTROL FOR STRESS PERIOD   19   TIME STEP   30



 STREAM LISTING     PERIOD     19   STEP       30

 LAYER ROW COL. STREAM  RCH.  FLOW INTO     FLOW TO   FLOW OUT OF   OVRLND.     DIRECT     STREAM       STREAM     STREAM     STREAM   STREAMBED  STREAMBED
                SEG.NO.  NO.  STRM. RCH.    AQUIFER    STRM. RCH.    RUNOFF     PRECIP       ET          HEAD       DEPTH      WIDTH   CONDCTNC.   GRADIENT

   1    1    1     1     1    2.0250E+01  2.2212E-01   2.0028E+01  0.000E+00  0.000E+00  0.000E+00  1.09415E+03  1.102E+00  1.203E+01  5.414E-02  1.367E+00
   1    2    2     1     2    2.0028E+01  3.4298E-01   1.9685E+01  0.000E+00  0.000E+00  0.000E+00  1.08916E+03  1.098E+00  1.196E+01  8.370E-02  1.366E+00
   1    3    3     1     3    1.9685E+01  2.9127E-01   1.9394E+01  0.000E+00  0.000E+00  0.000E+00  1.08351E+03  1.093E+00  1.186E+01  7.117E-02  1.364E+00
   1    3    4     1     4    1.9394E+01  2.6721E-01   1.9127E+01  0.000E+00  0.000E+00  0.000E+00  1.07850E+03  1.088E+00  1.178E+01  6.536E-02  1.363E+00
   1    4    5     2     1    1.7127E+01  3.0866E-01   1.6818E+01  0.000E+00  0.000E+00  0.000E+00  1.07289E+03  9.572E-01  1.200E+01  7.800E-02  1.319E+00
   1    5    6     2     2    1.6818E+01  2.3687E-01   1.6581E+01  0.000E+00  0.000E+00  0.000E+00  1.06746E+03  9.479E-01  1.200E+01  6.000E-02  1.316E+00
   1    6    6     2     3    1.6581E+01  2.3639E-01   1.6345E+01  0.000E+00  0.000E+00  0.000E+00  1.06273E+03  9.398E-01  1.200E+01  6.000E-02  1.313E+00
   1    7    6     2     4    1.6345E+01  2.3590E-01   1.6109E+01  0.000E+00  0.000E+00  0.000E+00  1.05801E+03  9.317E-01  1.200E+01  6.000E-02  1.311E+00
   1    8    6     2     5    1.6109E+01  2.3541E-01   1.5873E+01  0.000E+00  0.000E+00  0.000E+00  1.05328E+03  9.236E-01  1.200E+01  6.000E-02  1.308E+00
   1    3    5     3     1    2.0000E+00  2.8252E-01   1.7175E+00  0.000E+00  0.000E+00  0.000E+00  1.07555E+03  1.909E+00  9.636E+00  7.227E-02  1.955E+00
   1    3    6     3     2    1.7175E+00  2.4905E-01   1.4684E+00  0.000E+00  0.000E+00  0.000E+00  1.07264E+03  1.727E+00  8.909E+00  6.682E-02  1.864E+00
   1    3    7     3     3    1.4684E+00  1.9718E-01   1.2712E+00  0.000E+00  0.000E+00  0.000E+00  1.06987E+03  1.555E+00  8.218E+00  5.547E-02  1.777E+00
   1    4    8     3     4    1.2712E+00  2.2567E-01   1.0456E+00  0.000E+00  0.000E+00  0.000E+00  1.06682E+03  1.364E+00  7.455E+00  6.709E-02  1.682E+00
   1    5    8     3     5    1.0456E+00  1.5790E-01   8.8768E-01  0.000E+00  0.000E+00  0.000E+00  1.06362E+03  1.164E+00  6.655E+00  4.991E-02  1.582E+00
   1    6    8     3     6    8.8768E-01  5.5980E-02   8.3170E-01  0.000E+00  0.000E+00  0.000E+00  1.06158E+03  1.036E+00  6.145E+00  1.844E-02  1.518E+00
   1    5   10     4     1    1.0000E+01  9.0919E-02   9.9091E+00  0.000E+00  0.000E+00  0.000E+00  1.07836E+03  6.368E-01  1.000E+01  2.500E-02  1.212E+00
   1    5    9     4     2    9.9091E+00  1.8158E-01   9.7275E+00  0.000E+00  0.000E+00  0.000E+00  1.07154E+03  6.315E-01  1.000E+01  5.000E-02  1.211E+00
   1    6    8     4     3    9.7275E+00  1.2689E-01   9.6006E+00  0.000E+00  0.000E+00  0.000E+00  1.06381E+03  6.256E-01  1.000E+01  3.500E-02  1.209E+00
   1    6    8     5     1    1.0432E+01  2.2686E-01   1.0205E+01  0.000E+00  0.000E+00  0.000E+00  1.05868E+03  6.790E-01  1.542E+01  6.166E-02  1.226E+00
   1    7    7     5     2    1.0205E+01  2.7894E-01   9.9265E+00  0.000E+00  0.000E+00  0.000E+00  1.05417E+03  6.732E-01  1.519E+01  7.594E-02  1.224E+00
   1    8    7     5     3    9.9265E+00  1.9221E-01   9.7343E+00  0.000E+00  0.000E+00  0.000E+00  1.04992E+03  6.676E-01  1.497E+01  5.241E-02  1.223E+00
   1    8    6     5     4    9.7343E+00  1.3577E-01   9.5985E+00  0.000E+00  0.000E+00  0.000E+00  1.04691E+03  6.637E-01  1.482E+01  3.706E-02  1.221E+00
   1    9    6     6     1    9.5985E+00  2.2097E-01   9.3776E+00  0.000E+00  0.000E+00  0.000E+00  1.04341E+03  6.828E-01  1.200E+01  6.000E-02  1.228E+00
   1   10    7     6     2    9.3776E+00  2.2039E-01   9.1572E+00  0.000E+00  0.000E+00  0.000E+00  1.03885E+03  6.732E-01  1.200E+01  6.000E-02  1.224E+00
   1   11    7     6     3    9.1572E+00  2.1981E-01   8.9374E+00  0.000E+00  0.000E+00  0.000E+00  1.03430E+03  6.636E-01  1.200E+01  6.000E-02  1.221E+00
   1   12    7     6     4    8.9374E+00  2.1923E-01   8.7181E+00  0.000E+00  0.000E+00  0.000E+00  1.02974E+03  6.539E-01  1.200E+01  6.000E-02  1.218E+00
   1   13    7     6     5    8.7181E+00 -4.6116E-02   8.7642E+00  0.000E+00  0.000E+00  0.000E+00  1.02656E+03  6.500E-01  1.200E+01  2.400E-01 -6.405E-02
   1   14    9     7     1    1.5000E+02  1.3723E+00   1.4863E+02  0.000E+00  0.000E+00  0.000E+00  1.03987E+03  2.288E+00  5.529E+01  5.593E-01  8.179E-01
   1   13    8     7     2    1.4863E+02  1.9378E+00   1.4669E+02  0.000E+00  0.000E+00  0.000E+00  1.03478E+03  2.279E+00  5.525E+01  6.147E-01  1.051E+00
   1   13    7     7     3    1.4669E+02  1.6402E+00   1.4505E+02  0.000E+00  0.000E+00  0.000E+00  1.02969E+03  2.269E+00  5.521E+01  5.584E-01  9.791E-01
   1   13    6     8     1    1.5381E+02  9.9461E-01   1.5282E+02  0.000E+00  0.000E+00  0.000E+00  1.02472E+03  2.840E+00  4.118E+01  4.196E-01  7.900E-01
   1   13    5     8     2    1.5282E+02  2.5744E-01   1.5256E+02  0.000E+00  0.000E+00  0.000E+00  1.01846E+03  2.836E+00  4.112E+01  4.190E-01  2.048E-01
   1   13    4     8     3    1.5256E+02 -2.1366E+00   1.5470E+02  0.000E+00  0.000E+00  0.000E+00  1.01222E+03  2.842E+00  4.121E+01  4.200E+00 -1.696E-01
   1   13    3     8     4    1.5470E+02 -3.5058E+00   1.5820E+02  0.000E+00  0.000E+00  0.000E+00  1.00599E+03  2.862E+00  4.149E+01  4.228E+00 -2.764E-01
   1   13    2     8     5    1.5820E+02 -2.5717E+00   1.6078E+02  0.000E+00  0.000E+00  0.000E+00  9.99757E+02  2.882E+00  4.179E+01  4.259E+00 -2.013E-01
   1   13    1     8     6    1.6078E+02 -2.0098E+00   1.6279E+02  0.000E+00  0.000E+00  0.000E+00  9.94773E+02  2.898E+00  4.202E+01  2.569E+00 -2.608E-01
   1    8    6     9     1    1.5873E+01  0.0000E+00   1.5873E+01  0.000E+00  0.000E+00  0.000E+00  1.08174E+03  2.990E+00  4.000E+00  0.000E+00  1.997E+00
   1    8    5     9     2    1.5873E+01  0.0000E+00   1.5873E+01  0.000E+00  0.000E+00  0.000E+00  1.08124E+03  2.990E+00  4.000E+00  0.000E+00  1.997E+00





UNSATURATED ZONE PACKAGE VOLUMETRIC BUDGET FOR  TIME STEP    30 STRESS PERIOD   19
  ------------------------------------------------------------------------------



     CUMULATIVE VOLUMES      L**3       RATES FOR THIS TIME STEP      L**3/T
     ------------------                 ------------------------

           IN:                                      IN:
           ---                                      ---
        INFILTRATION =   778726994.4509          INFILTRATION =          26.7006

          OUT:                                     OUT:
          ----                                     ----
              UZF ET =   636961631.7729                UZF ET =          26.6150
        UZF RECHARGE =      167968.6155          UZF RECHARGE =       0.0000E+00

            IN - OUT =   141597394.0625              IN - OUT =       8.5582E-02

          STORAGE:                                 STORAGE:
          --------                                 --------
      STORAGE CHANGE =   141597385.1474        STORAGE CHANGE =       8.5582E-02

 PERCENT DISCREPANCY IS DIFFERENCE BETWEEN IN-OUT MINUS CHANGE IN STORAGE
 DIVIDED BY THE AVERAGE OF IN AND OUT TIMES 100

 PERCENT DISCREPANCY =           0.00     PERCENT DISCREPANCY =           0.00






1
  VOLUMETRIC BUDGET FOR AGRICULTURAL FIELDS AT  END OF TIME STEP   30, STRESS PERIOD  19
  ------------------------------------------------------------------------------

     CUMULATIVE VOLUMES      L**3       RATES FOR THIS TIME STEP      L**3/T
     ------------------                 ------------------------

           IN:                                      IN:
           ---                                      ---
               AG WELLS  =   279977600.0000                 AG WELLS  =           6.4193
      DIVERSION SEGMENTS =   290160000.0000        DIVERSION SEGMENTS =          15.8735
           GW IRRIGATION =           0.0000             GW IRRIGATION =           0.0000
           SW IRRIGATION =           0.0000             SW IRRIGATION =           0.0000
        SYSTEM LOSSES GW =           0.0000          SYSTEM LOSSES GW =           0.0000
        SYSTEM LOSSES SW =           0.0000          SYSTEM LOSSES SW =           0.0000

                TOTAL IN =   570137600.0000                  TOTAL IN =          22.2928

          OUT:                                     OUT:
          ----                                     ----
               AG WELLS  =           0.0000                 AG WELLS  =           0.0000
      DIVERSION SEGMENTS =           0.0000        DIVERSION SEGMENTS =           0.0000
           GW IRRIGATION =   279977600.0000             GW IRRIGATION =           6.4193
           SW IRRIGATION =   290165888.0000             SW IRRIGATION =          15.8738
        SYSTEM LOSSES GW =           0.0000          SYSTEM LOSSES GW =           0.0000
        SYSTEM LOSSES SW =           0.0000          SYSTEM LOSSES SW =           0.0000

               TOTAL OUT =   570143488.0000                 TOTAL OUT =          22.2931

                IN - OUT =       -5888.0000                  IN - OUT =      -3.1853E-04

     PERCENT DISCREPANCY =          -0.00         PERCENT DISCREPANCY =          -0.00



1
  VOLUMETRIC BUDGET FOR ENTIRE MODEL AT END OF TIME STEP   30, STRESS PERIOD  19
  ------------------------------------------------------------------------------

     CUMULATIVE VOLUMES      L**3       RATES FOR THIS TIME STEP      L**3/T
     ------------------                 ------------------------

           IN:                                      IN:
           ---                                      ---
             STORAGE     =   438454144.0000               STORAGE     =           5.5177
       CONSTANT HEAD     =           0.0000         CONSTANT HEAD     =           0.0000
     HEAD DEP BOUNDS     =    13658995.0000       HEAD DEP BOUNDS     =           0.2882
      STREAM LEAKAGE     =   559109568.0000        STREAM LEAKAGE     =          11.8611
        UZF RECHARGE     =      167968.5625          UZF RECHARGE     =           0.0000
               GW ET     =           0.0000                 GW ET     =           0.0000
     SURFACE LEAKAGE     =           0.0000       SURFACE LEAKAGE     =           0.0000
           AG WELLS      =           0.0000             AG WELLS      =           0.0000

                TOTAL IN =  1011390720.0000                  TOTAL IN =          17.6670

          OUT:                                     OUT:
          ----                                     ----
             STORAGE     =   231610880.0000               STORAGE     =           0.6905
       CONSTANT HEAD     =           0.0000         CONSTANT HEAD     =           0.0000
     HEAD DEP BOUNDS     =    13668404.0000       HEAD DEP BOUNDS     =           0.2871
      STREAM LEAKAGE     =   486139808.0000        STREAM LEAKAGE     =          10.2700
        UZF RECHARGE     =           0.0000          UZF RECHARGE     =           0.0000
               GW ET     =           0.0000                 GW ET     =           0.0000
     SURFACE LEAKAGE     =           0.0000       SURFACE LEAKAGE     =           0.0000
           AG WELLS      =   279977600.0000             AG WELLS      =           6.4193

               TOTAL OUT =  1011396672.0000                 TOTAL OUT =          17.6669

                IN - OUT =       -5952.0000                  IN - OUT =       5.9128E-05

     PERCENT DISCREPANCY =          -0.00         PERCENT DISCREPANCY =           0.00






         TIME SUMMARY AT END OF TIME STEP   30 IN STRESS PERIOD   19
                    SECONDS     MINUTES      HOURS       DAYS        YEARS
                    -----------------------------------------------------------
   TIME STEP LENGTH  87667.      1461.1      24.352      1.0147     2.77799E-03
 STRESS PERIOD TIME 2.63000E+06  43833.      730.56      30.440     8.33397E-02
         TOTAL TIME 4.74265E+07 7.90442E+05  13174.      548.92      1.5029    
1
1
                            STRESS PERIOD NO.   20, LENGTH =   2630000.    
                            -----------------------------------------------

                              NUMBER OF TIME STEPS =    30

                               MULTIPLIER FOR DELT =     1.000

                            INITIAL TIME STEP SIZE =   87666.66    

 REUSING NON-PARAMETER GHB CELLS FROM LAST STRESS PERIOD

      2 GHB CELLS

 REUSING STREAM SEGMENT DATA FROM LAST STRESS PERIOD



            AREAL INFILTRATION RATE
 READING ON UNIT   19 WITH FORMAT: (10F4.0)            

            1           2           3           4           5           6           7           8           9          10
 ........................................................................................................................
   1   1.2000E-09   0.000       0.000       0.000       0.000       0.000       0.000       0.000       0.000       0.000    
   2   2.1000E-09  2.0000E-09  8.0000E-10  8.5000E-09   0.000       0.000       0.000       0.000       0.000       0.000    
   3   5.0000E-10  1.1000E-09  8.8000E-09  5.5000E-09   0.000       0.000       0.000       0.000       0.000       0.000    
   4   8.5000E-09  1.1000E-09  1.1000E-09  1.1000E-09  2.0000E-09   0.000       0.000       0.000       0.000       0.000    
   5   8.5000E-09  1.1000E-09  1.1000E-09  1.1000E-09  1.1000E-09   0.000       0.000       0.000       0.000       0.000    
   6   8.5000E-09  5.2000E-09  2.1000E-09  1.1000E-09  1.5000E-09   0.000       0.000       0.000       0.000       0.000    
   7   8.5000E-09  5.2000E-09  2.1000E-09  1.2000E-09  2.0000E-09   0.000       0.000       0.000       0.000       0.000    
   8   5.0000E-10  5.2000E-09  2.1000E-09  1.2000E-09  5.0000E-09   0.000       0.000       0.000       0.000       0.000    
   9   5.0000E-10  5.2000E-09  2.1000E-09  1.2000E-09  5.0000E-09   0.000       0.000       0.000       0.000       0.000    
  10   5.0000E-10  5.2000E-09  2.1000E-09  1.2000E-09  5.8000E-09   0.000       0.000       0.000       0.000       0.000    
  11   1.0000E-10  1.1000E-09  1.1000E-09  1.2000E-09  5.0000E-09   0.000       0.000       0.000       0.000       0.000    
  12   1.1000E-09  1.1000E-09  1.1000E-09  1.1000E-09  2.0000E-09   0.000       0.000       0.000       0.000       0.000    
  13   1.1000E-09  2.2000E-09  2.2000E-09  2.1000E-09  1.0000E-09   0.000       0.000       0.000       0.000       0.000    
  14   2.0000E-10  5.5000E-09  5.5000E-09  5.2000E-09  1.0000E-09   0.000       0.000       0.000       0.000       0.000    
  15    0.000      8.8000E-09  8.8000E-09   0.000       0.000       0.000       0.000       0.000       0.000       0.000    

                  ET RATE =  4.000000E-07

 USING ET EXTINCTION DEPTH FROM PREVIOUS STRESS PERIOD. CURRENT PERIOD IS:      20

 USING EXTINCTION WATER CONTENT FROM PREVIOUS STRESS PERIOD. CURRENT PERIOD IS:      20

 USING AIR ENTRY PRESSURE FROM PREVIOUS STRESS PERIOD. CURRENT PERIOD IS:      20

 USING ROOT PRESSURE HEAD FROM PREVIOUS STRESS PERIOD. CURRENT PERIOD IS:      20

 USING ROOT ACTIVITY FROM PREVIOUS STRESS PERIOD. CURRENT PERIOD IS:      20

 PROCESSING AG STRESS PERIOD DATA

 READING AG STRESS PERIOD DATA

 READING IRRIGATION SEGMENT

 READING IRRIGATION WELL

 READING SUPPLEMENTAL WELL

 END PROCESSING AG STRESS PERIOD DATA OPTIONS
 
 SOLVING FOR HEAD 
                                                   Max.-Head-Change                         Max.-Flux-Residual
  Residual-Control   Outer-Iter.   Inner-Iter.     Column Row Layer    Maximum-Head-Change  Column Row Layer    Maximum-Flux-Residual          L2-NORM 
          0                 1           2             5    8     1       0.1005749105E-01       5    8    1         0.5419888830E+00      0.1350304658E+01
          0                 2           2             4    7     1      -0.2163110752E+00       5    8    1        -0.1162492079E+02      0.2846929748E+02
          0                 3           2             4    7     1       0.1472809996E-01       5    6    1         0.8135866861E+00      0.1990006647E+01
          0                 4           2             4    7     1      -0.5860462688E-03       5    6    1        -0.3326228254E-01      0.8141132104E-01
          0                 5           1             4    7     1       0.7226202405E-05       4    7    1         0.4212380718E-03      0.1039931958E-02

    ------------------------------------------------
       NWT REQUIRED            5 OUTER ITERATIONS 
       AND A TOTAL OF          9 INNER ITERATIONS.
    ------------------------------------------------

 OUTPUT CONTROL FOR STRESS PERIOD   20   TIME STEP    1
    PRINT BUDGET
    SAVE BUDGET
    SAVE BUDGET
    SAVE HEAD FOR ALL LAYERS
 UBDSV1 SAVING "         STORAGE" ON UNIT 102 AT TIME STEP  1, STRESS PERIOD  20
 UBDSV2 SAVING "   CONSTANT HEAD" ON UNIT 102 AT TIME STEP  1, STRESS PERIOD  20
 UBDSV1 SAVING "FLOW RIGHT FACE " ON UNIT 102 AT TIME STEP  1, STRESS PERIOD  20
 UBDSV1 SAVING "FLOW FRONT FACE " ON UNIT 102 AT TIME STEP  1, STRESS PERIOD  20

  HEAD DEP BOUNDS   PERIOD   20   STEP     1
 BOUNDARY      1   LAYER   1   ROW    13   COL     1   RATE   -0.287067    
 BOUNDARY      2   LAYER   1   ROW    14   COL     9   RATE    0.288244    



 STREAM LISTING     PERIOD     20   STEP        1

 LAYER ROW COL. STREAM  RCH.  FLOW INTO     FLOW TO   FLOW OUT OF   OVRLND.     DIRECT     STREAM       STREAM     STREAM     STREAM   STREAMBED  STREAMBED
                SEG.NO.  NO.  STRM. RCH.    AQUIFER    STRM. RCH.    RUNOFF     PRECIP       ET          HEAD       DEPTH      WIDTH   CONDCTNC.   GRADIENT

   1    1    1     1     1    2.0250E+01  2.2212E-01   2.0028E+01  0.000E+00  0.000E+00  0.000E+00  1.09415E+03  1.102E+00  1.203E+01  5.414E-02  1.367E+00
   1    2    2     1     2    2.0028E+01  3.4298E-01   1.9685E+01  0.000E+00  0.000E+00  0.000E+00  1.08916E+03  1.098E+00  1.196E+01  8.370E-02  1.366E+00
   1    3    3     1     3    1.9685E+01  2.9127E-01   1.9394E+01  0.000E+00  0.000E+00  0.000E+00  1.08351E+03  1.093E+00  1.186E+01  7.117E-02  1.364E+00
   1    3    4     1     4    1.9394E+01  2.6721E-01   1.9127E+01  0.000E+00  0.000E+00  0.000E+00  1.07850E+03  1.088E+00  1.178E+01  6.536E-02  1.363E+00
   1    4    5     2     1    1.7127E+01  3.0866E-01   1.6818E+01  0.000E+00  0.000E+00  0.000E+00  1.07289E+03  9.572E-01  1.200E+01  7.800E-02  1.319E+00
   1    5    6     2     2    1.6818E+01  2.3687E-01   1.6581E+01  0.000E+00  0.000E+00  0.000E+00  1.06746E+03  9.479E-01  1.200E+01  6.000E-02  1.316E+00
   1    6    6     2     3    1.6581E+01  2.3639E-01   1.6345E+01  0.000E+00  0.000E+00  0.000E+00  1.06273E+03  9.398E-01  1.200E+01  6.000E-02  1.313E+00
   1    7    6     2     4    1.6345E+01  2.3590E-01   1.6109E+01  0.000E+00  0.000E+00  0.000E+00  1.05801E+03  9.317E-01  1.200E+01  6.000E-02  1.311E+00
   1    8    6     2     5    1.6109E+01  2.3541E-01   1.5873E+01  0.000E+00  0.000E+00  0.000E+00  1.05328E+03  9.236E-01  1.200E+01  6.000E-02  1.308E+00
   1    3    5     3     1    2.0000E+00  2.8252E-01   1.7175E+00  0.000E+00  0.000E+00  0.000E+00  1.07555E+03  1.909E+00  9.636E+00  7.227E-02  1.955E+00
   1    3    6     3     2    1.7175E+00  2.4905E-01   1.4684E+00  0.000E+00  0.000E+00  0.000E+00  1.07264E+03  1.727E+00  8.909E+00  6.682E-02  1.864E+00
   1    3    7     3     3    1.4684E+00  1.9718E-01   1.2712E+00  0.000E+00  0.000E+00  0.000E+00  1.06987E+03  1.555E+00  8.218E+00  5.547E-02  1.777E+00
   1    4    8     3     4    1.2712E+00  2.2567E-01   1.0456E+00  0.000E+00  0.000E+00  0.000E+00  1.06682E+03  1.364E+00  7.455E+00  6.709E-02  1.682E+00
   1    5    8     3     5    1.0456E+00  1.5790E-01   8.8768E-01  0.000E+00  0.000E+00  0.000E+00  1.06362E+03  1.164E+00  6.655E+00  4.991E-02  1.582E+00
   1    6    8     3     6    8.8768E-01  5.5980E-02   8.3170E-01  0.000E+00  0.000E+00  0.000E+00  1.06158E+03  1.036E+00  6.145E+00  1.844E-02  1.518E+00
   1    5   10     4     1    1.0000E+01  9.0919E-02   9.9091E+00  0.000E+00  0.000E+00  0.000E+00  1.07836E+03  6.368E-01  1.000E+01  2.500E-02  1.212E+00
   1    5    9     4     2    9.9091E+00  1.8158E-01   9.7275E+00  0.000E+00  0.000E+00  0.000E+00  1.07154E+03  6.315E-01  1.000E+01  5.000E-02  1.211E+00
   1    6    8     4     3    9.7275E+00  1.2689E-01   9.6006E+00  0.000E+00  0.000E+00  0.000E+00  1.06381E+03  6.256E-01  1.000E+01  3.500E-02  1.209E+00
   1    6    8     5     1    1.0432E+01  2.2686E-01   1.0205E+01  0.000E+00  0.000E+00  0.000E+00  1.05868E+03  6.790E-01  1.542E+01  6.166E-02  1.226E+00
   1    7    7     5     2    1.0205E+01  2.7894E-01   9.9265E+00  0.000E+00  0.000E+00  0.000E+00  1.05417E+03  6.732E-01  1.519E+01  7.594E-02  1.224E+00
   1    8    7     5     3    9.9265E+00  1.9221E-01   9.7343E+00  0.000E+00  0.000E+00  0.000E+00  1.04992E+03  6.676E-01  1.497E+01  5.241E-02  1.223E+00
   1    8    6     5     4    9.7343E+00  1.3577E-01   9.5985E+00  0.000E+00  0.000E+00  0.000E+00  1.04691E+03  6.637E-01  1.482E+01  3.706E-02  1.221E+00
   1    9    6     6     1    9.5985E+00  2.2097E-01   9.3776E+00  0.000E+00  0.000E+00  0.000E+00  1.04341E+03  6.828E-01  1.200E+01  6.000E-02  1.228E+00
   1   10    7     6     2    9.3776E+00  2.2039E-01   9.1572E+00  0.000E+00  0.000E+00  0.000E+00  1.03885E+03  6.732E-01  1.200E+01  6.000E-02  1.224E+00
   1   11    7     6     3    9.1572E+00  2.1981E-01   8.9374E+00  0.000E+00  0.000E+00  0.000E+00  1.03430E+03  6.636E-01  1.200E+01  6.000E-02  1.221E+00
   1   12    7     6     4    8.9374E+00  2.1923E-01   8.7181E+00  0.000E+00  0.000E+00  0.000E+00  1.02974E+03  6.539E-01  1.200E+01  6.000E-02  1.218E+00
   1   13    7     6     5    8.7181E+00 -4.5939E-02   8.7641E+00  0.000E+00  0.000E+00  0.000E+00  1.02656E+03  6.500E-01  1.200E+01  2.400E-01 -6.380E-02
   1   14    9     7     1    1.5000E+02  1.3723E+00   1.4863E+02  0.000E+00  0.000E+00  0.000E+00  1.03987E+03  2.288E+00  5.529E+01  5.593E-01  8.179E-01
   1   13    8     7     2    1.4863E+02  1.9380E+00   1.4669E+02  0.000E+00  0.000E+00  0.000E+00  1.03478E+03  2.279E+00  5.525E+01  6.147E-01  1.051E+00
   1   13    7     7     3    1.4669E+02  1.6406E+00   1.4505E+02  0.000E+00  0.000E+00  0.000E+00  1.02969E+03  2.269E+00  5.521E+01  5.584E-01  9.794E-01
   1   13    6     8     1    1.5381E+02  9.9500E-01   1.5282E+02  0.000E+00  0.000E+00  0.000E+00  1.02472E+03  2.840E+00  4.118E+01  4.196E-01  7.904E-01
   1   13    5     8     2    1.5282E+02  2.5780E-01   1.5256E+02  0.000E+00  0.000E+00  0.000E+00  1.01846E+03  2.836E+00  4.112E+01  4.190E-01  2.051E-01
   1   13    4     8     3    1.5256E+02 -2.1347E+00   1.5470E+02  0.000E+00  0.000E+00  0.000E+00  1.01222E+03  2.842E+00  4.121E+01  4.200E+00 -1.694E-01
   1   13    3     8     4    1.5470E+02 -3.5040E+00   1.5820E+02  0.000E+00  0.000E+00  0.000E+00  1.00599E+03  2.862E+00  4.149E+01  4.228E+00 -2.762E-01
   1   13    2     8     5    1.5820E+02 -2.5696E+00   1.6077E+02  0.000E+00  0.000E+00  0.000E+00  9.99757E+02  2.882E+00  4.179E+01  4.259E+00 -2.011E-01
   1   13    1     8     6    1.6077E+02 -2.0080E+00   1.6278E+02  0.000E+00  0.000E+00  0.000E+00  9.94773E+02  2.898E+00  4.202E+01  2.569E+00 -2.605E-01
   1    8    6     9     1    1.5873E+01  0.0000E+00   1.5873E+01  0.000E+00  0.000E+00  0.000E+00  1.08174E+03  2.990E+00  4.000E+00  0.000E+00  1.997E+00
   1    8    5     9     2    1.5873E+01  0.0000E+00   1.5873E+01  0.000E+00  0.000E+00  0.000E+00  1.08124E+03  2.990E+00  4.000E+00  0.000E+00  1.997E+00



 UBDSV3 SAVING "           GW ET" ON UNIT  61 AT TIME STEP  1, STRESS PERIOD  20
 UBDSV3 SAVING "    UZF RECHARGE" ON UNIT  61 AT TIME STEP  1, STRESS PERIOD  20
 UBDSV3 SAVING " SURFACE LEAKAGE" ON UNIT  61 AT TIME STEP  1, STRESS PERIOD  20
 UBDSV3 SAVING "       HORT+DUNN" ON UNIT  61 AT TIME STEP  1, STRESS PERIOD  20
 UBDSV3 SAVING "  STORAGE CHANGE" ON UNIT  61 AT TIME STEP  1, STRESS PERIOD  20


UNSATURATED ZONE PACKAGE VOLUMETRIC BUDGET FOR  TIME STEP     1 STRESS PERIOD   20
  ------------------------------------------------------------------------------



     CUMULATIVE VOLUMES      L**3       RATES FOR THIS TIME STEP      L**3/T
     ------------------                 ------------------------

           IN:                                      IN:
           ---                                      ---
        INFILTRATION =   786591188.6453          INFILTRATION =          89.7056

          OUT:                                     OUT:
          ----                                     ----
              UZF ET =   642581722.3423                UZF ET =          64.1075
        UZF RECHARGE =      167968.6155          UZF RECHARGE =       0.0000E+00

            IN - OUT =   143841497.6875              IN - OUT =          25.5981

          STORAGE:                                 STORAGE:
          --------                                 --------
      STORAGE CHANGE =   143841488.6063        STORAGE CHANGE =          25.5981

 PERCENT DISCREPANCY IS DIFFERENCE BETWEEN IN-OUT MINUS CHANGE IN STORAGE
 DIVIDED BY THE AVERAGE OF IN AND OUT TIMES 100

 PERCENT DISCREPANCY =           0.00     PERCENT DISCREPANCY =           0.00






 

            AG WELLS      PERIOD   20   STEP   1
 AG WELL      1   LAYER   1   ROW     6   COL     4   RATE    -11.5707    
 AG WELL      2   LAYER   1   ROW     6   COL     5   RATE    -11.5707    
 AG WELL      3   LAYER   1   ROW     7   COL     4   RATE    -11.5707    
 AG WELL      4   LAYER   1   ROW     7   COL     5   RATE    -11.5707    
 AG WELL      5   LAYER   1   ROW     8   COL     4   RATE    -11.5707    
 AG WELL      6   LAYER   1   ROW     8   COL     5   RATE    -11.5707    
 
 

   DIVERSION SEGMENTS     PERIOD   20   STEP   1
 SEGMENT      9   RATE     15.8735    
 
 

        SW IRRIGATION     PERIOD   20   STEP   1
 SEGMENT      9   ROW     6   COL     4   RATE     2.64564    
 SEGMENT      9   ROW     6   COL     5   RATE     2.64564    
 SEGMENT      9   ROW     7   COL     4   RATE     2.64564    
 SEGMENT      9   ROW     7   COL     5   RATE     2.64564    
 SEGMENT      9   ROW     8   COL     4   RATE     2.64564    
 SEGMENT      9   ROW     8   COL     5   RATE     2.64564    
 
 

        GW IRRIGATION     PERIOD   20   STEP   1
 AG WELL      1   ROW     6   COL     4   RATE     11.5707    
 AG WELL      2   ROW     6   COL     5   RATE     11.5707    
 AG WELL      3   ROW     7   COL     4   RATE     11.5707    
 AG WELL      4   ROW     7   COL     5   RATE     11.5707    
 AG WELL      5   ROW     8   COL     4   RATE     11.5707    
 AG WELL      6   ROW     8   COL     5   RATE     11.5707    
 
1
  VOLUMETRIC BUDGET FOR AGRICULTURAL FIELDS AT  END OF TIME STEP    1, STRESS PERIOD  20
  ------------------------------------------------------------------------------

     CUMULATIVE VOLUMES      L**3       RATES FOR THIS TIME STEP      L**3/T
     ------------------                 ------------------------

           IN:                                      IN:
           ---                                      ---
               AG WELLS  =   286063808.0000                 AG WELLS  =          69.4243
      DIVERSION SEGMENTS =   291551584.0000        DIVERSION SEGMENTS =          15.8735
           GW IRRIGATION =           0.0000             GW IRRIGATION =           0.0000
           SW IRRIGATION =           0.0000             SW IRRIGATION =           0.0000
        SYSTEM LOSSES GW =           0.0000          SYSTEM LOSSES GW =           0.0000
        SYSTEM LOSSES SW =           0.0000          SYSTEM LOSSES SW =           0.0000

                TOTAL IN =   577615360.0000                  TOTAL IN =          85.2978

          OUT:                                     OUT:
          ----                                     ----
               AG WELLS  =           0.0000                 AG WELLS  =           0.0000
      DIVERSION SEGMENTS =           0.0000        DIVERSION SEGMENTS =           0.0000
           GW IRRIGATION =   286063808.0000             GW IRRIGATION =          69.4243
           SW IRRIGATION =   291557504.0000             SW IRRIGATION =          15.8738
        SYSTEM LOSSES GW =           0.0000          SYSTEM LOSSES GW =           0.0000
        SYSTEM LOSSES SW =           0.0000          SYSTEM LOSSES SW =           0.0000

               TOTAL OUT =   577621312.0000                 TOTAL OUT =          85.2981

                IN - OUT =       -5952.0000                  IN - OUT =      -3.2043E-04

     PERCENT DISCREPANCY =          -0.00         PERCENT DISCREPANCY =          -0.00




 HEAD WILL BE SAVED ON UNIT   62 AT END OF TIME STEP    1, STRESS PERIOD   20
1
  VOLUMETRIC BUDGET FOR ENTIRE MODEL AT END OF TIME STEP    1, STRESS PERIOD  20
  ------------------------------------------------------------------------------

     CUMULATIVE VOLUMES      L**3       RATES FOR THIS TIME STEP      L**3/T
     ------------------                 ------------------------

           IN:                                      IN:
           ---                                      ---
             STORAGE     =   444454176.0000               STORAGE     =          68.4413
       CONSTANT HEAD     =           0.0000         CONSTANT HEAD     =           0.0000
     HEAD DEP BOUNDS     =    13684264.0000       HEAD DEP BOUNDS     =           0.2882
      STREAM LEAKAGE     =   560149504.0000        STREAM LEAKAGE     =          11.8624
        UZF RECHARGE     =      167968.5625          UZF RECHARGE     =           0.0000
               GW ET     =           0.0000                 GW ET     =           0.0000
     SURFACE LEAKAGE     =           0.0000       SURFACE LEAKAGE     =           0.0000
           AG WELLS      =           0.0000             AG WELLS      =           0.0000

                TOTAL IN =  1018455936.0000                  TOTAL IN =          80.5919

          OUT:                                     OUT:
          ----                                     ----
             STORAGE     =   231665088.0000               STORAGE     =           0.6184
       CONSTANT HEAD     =           0.0000         CONSTANT HEAD     =           0.0000
     HEAD DEP BOUNDS     =    13693570.0000       HEAD DEP BOUNDS     =           0.2871
      STREAM LEAKAGE     =   487039456.0000        STREAM LEAKAGE     =          10.2621
        UZF RECHARGE     =           0.0000          UZF RECHARGE     =           0.0000
               GW ET     =           0.0000                 GW ET     =           0.0000
     SURFACE LEAKAGE     =           0.0000       SURFACE LEAKAGE     =           0.0000
           AG WELLS      =   286063808.0000             AG WELLS      =          69.4243

               TOTAL OUT =  1018461888.0000                 TOTAL OUT =          80.5919

                IN - OUT =       -5952.0000                  IN - OUT =       3.8147E-05

     PERCENT DISCREPANCY =          -0.00         PERCENT DISCREPANCY =           0.00






         TIME SUMMARY AT END OF TIME STEP    1 IN STRESS PERIOD   20
                    SECONDS     MINUTES      HOURS       DAYS        YEARS
                    -----------------------------------------------------------
   TIME STEP LENGTH  87667.      1461.1      24.352      1.0147     2.77799E-03
 STRESS PERIOD TIME  87667.      1461.1      24.352      1.0147     2.77799E-03
         TOTAL TIME 4.75142E+07 7.91903E+05  13198.      549.93      1.5056    
1
 
 SOLVING FOR HEAD 
                                                   Max.-Head-Change                         Max.-Flux-Residual
  Residual-Control   Outer-Iter.   Inner-Iter.     Column Row Layer    Maximum-Head-Change  Column Row Layer    Maximum-Flux-Residual          L2-NORM 
          0                 1           2             5    8     1       0.1577069521E-01       5    8    1         0.8565208383E+00      0.1908588328E+01
          0                 2           2             4    7     1      -0.1624249014E+00       5    8    1        -0.8757753851E+01      0.2142211284E+02
          0                 3           2             4    7     1       0.1106037905E-01       5    8    1         0.6128896877E+00      0.1499725608E+01
          0                 4           2             4    7     1      -0.4401035707E-03       5    6    1        -0.2505811492E-01      0.6136226829E-01
          0                 5           1             4    7     1       0.5426666593E-05       5    6    1         0.3169634683E-03      0.7852622337E-03

    ------------------------------------------------
       NWT REQUIRED            5 OUTER ITERATIONS 
       AND A TOTAL OF          9 INNER ITERATIONS.
    ------------------------------------------------

 NO OUTPUT CONTROL FOR STRESS PERIOD   20   TIME STEP    2
 
 SOLVING FOR HEAD 
                                                   Max.-Head-Change                         Max.-Flux-Residual
  Residual-Control   Outer-Iter.   Inner-Iter.     Column Row Layer    Maximum-Head-Change  Column Row Layer    Maximum-Flux-Residual          L2-NORM 
          0                 1           2             5    8     1       0.1964808237E-01       5    8    1         0.1069690785E+01      0.2332684624E+01
          0                 2           2             4    7     1      -0.3200401673E+00       5    8    1        -0.1723371167E+02      0.4216131092E+02
          0                 3           2             4    7     1       0.2179294552E-01       5    8    1         0.1207506799E+01      0.2951616874E+01
          0                 4           2             4    7     1      -0.8671645963E-03       5    8    1        -0.4936738612E-01      0.1207269893E+00
          0                 5           1             4    7     1       0.1069251057E-04       5    8    1         0.6242887930E-03      0.1537316946E-02

    ------------------------------------------------
       NWT REQUIRED            5 OUTER ITERATIONS 
       AND A TOTAL OF          9 INNER ITERATIONS.
    ------------------------------------------------

 NO OUTPUT CONTROL FOR STRESS PERIOD   20   TIME STEP    3
 
 SOLVING FOR HEAD 
                                                   Max.-Head-Change                         Max.-Flux-Residual
  Residual-Control   Outer-Iter.   Inner-Iter.     Column Row Layer    Maximum-Head-Change  Column Row Layer    Maximum-Flux-Residual          L2-NORM 
          0                 1           2             5    8     1       0.2771099144E-01       5    8    1         0.1515187404E+01      0.3249464685E+01
          0                 2           2             4    7     1      -0.1389449210E+00       5    8    1        -0.7546463918E+01      0.1840750587E+02
          0                 3           2             4    7     1       0.9461572542E-02       5    8    1         0.5344657884E+00      0.1291429238E+01
          0                 4           2             4    7     1      -0.3764852908E-03       5    8    1        -0.2185689984E-01      0.5284548472E-01
          0                 5           1             4    7     1       0.4642226025E-05       5    8    1         0.2768034647E-03      0.6762871438E-03

    ------------------------------------------------
       NWT REQUIRED            5 OUTER ITERATIONS 
       AND A TOTAL OF          9 INNER ITERATIONS.
    ------------------------------------------------

 NO OUTPUT CONTROL FOR STRESS PERIOD   20   TIME STEP    4
 
 SOLVING FOR HEAD 
                                                   Max.-Head-Change                         Max.-Flux-Residual
  Residual-Control   Outer-Iter.   Inner-Iter.     Column Row Layer    Maximum-Head-Change  Column Row Layer    Maximum-Flux-Residual          L2-NORM 
          0                 1           2             5    8     1       0.3035294509E-01       5    8    1         0.1660119405E+01      0.3565668509E+01
          0                 2           2             4    7     1      -0.3205980439E+00       5    8    1        -0.1730744134E+02      0.4229576359E+02
          0                 3           2             4    7     1       0.2183098505E-01       5    8    1         0.1211304451E+01      0.2960540372E+01
          0                 4           2             4    7     1      -0.8686779751E-03       5    8    1        -0.4952423598E-01      0.1210877029E+00
          0                 5           1             4    7     1       0.1071117168E-04       5    6    1         0.6264703575E-03      0.1540482311E-02

    ------------------------------------------------
       NWT REQUIRED            5 OUTER ITERATIONS 
       AND A TOTAL OF          9 INNER ITERATIONS.
    ------------------------------------------------

 NO OUTPUT CONTROL FOR STRESS PERIOD   20   TIME STEP    5
 
 SOLVING FOR HEAD 
                                                   Max.-Head-Change                         Max.-Flux-Residual
  Residual-Control   Outer-Iter.   Inner-Iter.     Column Row Layer    Maximum-Head-Change  Column Row Layer    Maximum-Flux-Residual          L2-NORM 
          0                 1           2             5    8     1       0.3811228968E-01       5    8    1         0.2087357911E+01      0.4463231519E+01
          0                 2           2             4    7     1      -0.1391872814E+00       5    8    1        -0.7602619967E+01      0.1849741896E+02
          0                 3           2             4    7     1       0.9478044395E-02       5    8    1         0.5321438904E+00      0.1295153926E+01
          0                 4           2             4    7     1      -0.3771406988E-03       5    8    1        -0.2176140711E-01      0.5299792675E-01
          0                 5           1             4    7     1       0.4650307560E-05       5    8    1         0.2755576934E-03      0.6778392633E-03

    ------------------------------------------------
       NWT REQUIRED            5 OUTER ITERATIONS 
       AND A TOTAL OF          9 INNER ITERATIONS.
    ------------------------------------------------

 NO OUTPUT CONTROL FOR STRESS PERIOD   20   TIME STEP    6
 
 SOLVING FOR HEAD 
                                                   Max.-Head-Change                         Max.-Flux-Residual
  Residual-Control   Outer-Iter.   Inner-Iter.     Column Row Layer    Maximum-Head-Change  Column Row Layer    Maximum-Flux-Residual          L2-NORM 
          0                 1           2             5    8     1       0.4018607773E-01       5    8    1         0.2200547878E+01      0.4729127014E+01
          0                 2           2             4    7     1      -0.3209087661E+00       5    8    1        -0.1736151791E+02      0.4238847981E+02
          0                 3           2             4    7     1       0.2185215375E-01       5    8    1         0.1215111696E+01      0.2967034246E+01
          0                 4           2             4    7     1      -0.8695202486E-03       5    8    1        -0.4968208202E-01      0.1213500315E+00
          0                 5           1             4    7     1       0.1072155748E-04       5    8    1         0.6285252916E-03      0.1542632306E-02

    ------------------------------------------------
       NWT REQUIRED            5 OUTER ITERATIONS 
       AND A TOTAL OF          9 INNER ITERATIONS.
    ------------------------------------------------

 NO OUTPUT CONTROL FOR STRESS PERIOD   20   TIME STEP    7
 
 SOLVING FOR HEAD 
                                                   Max.-Head-Change                         Max.-Flux-Residual
  Residual-Control   Outer-Iter.   Inner-Iter.     Column Row Layer    Maximum-Head-Change  Column Row Layer    Maximum-Flux-Residual          L2-NORM 
          0                 1           2             5    8     1       0.4741819564E-01       5    8    1         0.2598349754E+01      0.5583410643E+01
          0                 2           2             4    7     1      -0.1395070655E+00       5    8    1        -0.7653711730E+01      0.1858755488E+02
          0                 3           2             4    7     1       0.9499824416E-02       5    8    1         0.5357408072E+00      0.1301499832E+01
          0                 4           2             4    7     1      -0.3780073265E-03       5    8    1        -0.2191051048E-01      0.5326037802E-01
          0                 5           1             4    7     1       0.4660993215E-05       5    8    1         0.2775823909E-03      0.6809583178E-03

    ------------------------------------------------
       NWT REQUIRED            5 OUTER ITERATIONS 
       AND A TOTAL OF          9 INNER ITERATIONS.
    ------------------------------------------------

 NO OUTPUT CONTROL FOR STRESS PERIOD   20   TIME STEP    8
 
 SOLVING FOR HEAD 
                                                   Max.-Head-Change                         Max.-Flux-Residual
  Residual-Control   Outer-Iter.   Inner-Iter.     Column Row Layer    Maximum-Head-Change  Column Row Layer    Maximum-Flux-Residual          L2-NORM 
          0                 1           2             5    8     1       0.4900072216E-01       5    8    1         0.2684131032E+01      0.5802034608E+01
          0                 2           2             4    7     1      -0.3212394730E+00       5    8    1        -0.1740987548E+02      0.4247515418E+02
          0                 3           2             4    7     1       0.2187468172E-01       5    8    1         0.1218515737E+01      0.2973112636E+01
          0                 4           2             4    7     1      -0.8704166168E-03       5    8    1        -0.4982315399E-01      0.1215977671E+00
          0                 5           1             4    7     1       0.1073260987E-04       5    8    1         0.6304385388E-03      0.1544890342E-02

    ------------------------------------------------
       NWT REQUIRED            5 OUTER ITERATIONS 
       AND A TOTAL OF          9 INNER ITERATIONS.
    ------------------------------------------------

 NO OUTPUT CONTROL FOR STRESS PERIOD   20   TIME STEP    9
 
 SOLVING FOR HEAD 
                                                   Max.-Head-Change                         Max.-Flux-Residual
  Residual-Control   Outer-Iter.   Inner-Iter.     Column Row Layer    Maximum-Head-Change  Column Row Layer    Maximum-Flux-Residual          L2-NORM 
          0                 1           2             5    8     1       0.5577496598E-01       5    8    1         0.3056403807E+01      0.6613403482E+01
          0                 2           2             5    7     1      -0.1399525119E+00       5    8    1        -0.7699516293E+01      0.1867205102E+02
          0                 3           2             5    7     1       0.9530159775E-02       5    8    1         0.5389609846E+00      0.1307424777E+01
          0                 4           2             5    7     1      -0.3792143887E-03       5    8    1        -0.2204355996E-01      0.5350385230E-01
          0                 5           1             5    7     1       0.4675883459E-05       5    8    1         0.2793598264E-03      0.6839975197E-03

    ------------------------------------------------
       NWT REQUIRED            5 OUTER ITERATIONS 
       AND A TOTAL OF          9 INNER ITERATIONS.
    ------------------------------------------------

 NO OUTPUT CONTROL FOR STRESS PERIOD   20   TIME STEP   10
 
 SOLVING FOR HEAD 
                                                   Max.-Head-Change                         Max.-Flux-Residual
  Residual-Control   Outer-Iter.   Inner-Iter.     Column Row Layer    Maximum-Head-Change  Column Row Layer    Maximum-Flux-Residual          L2-NORM 
          0                 1           2             5    8     1       0.5693041526E-01       5    8    1         0.3118390460E+01      0.6789467101E+01
          0                 2           2             4    7     1      -0.3215863035E+00       5    8    1        -0.1745330060E+02      0.4255637909E+02
          0                 3           2             4    7     1       0.2189830621E-01       5    8    1         0.1221572040E+01      0.2978812597E+01
          0                 4           2             4    7     1      -0.8713566236E-03       5    8    1        -0.4994976119E-01      0.1218304114E+00
          0                 5           1             4    7     1       0.1074420116E-04       5    8    1         0.6321520268E-03      0.1547201353E-02

    ------------------------------------------------
       NWT REQUIRED            5 OUTER ITERATIONS 
       AND A TOTAL OF          9 INNER ITERATIONS.
    ------------------------------------------------

 NO OUTPUT CONTROL FOR STRESS PERIOD   20   TIME STEP   11
 
 SOLVING FOR HEAD 
                                                   Max.-Head-Change                         Max.-Flux-Residual
  Residual-Control   Outer-Iter.   Inner-Iter.     Column Row Layer    Maximum-Head-Change  Column Row Layer    Maximum-Flux-Residual          L2-NORM 
          0                 1           2             5    8     1       0.6330603492E-01       5    8    1         0.3468468530E+01      0.7561088790E+01
          0                 2           2             5    6     1      -0.1405073888E+00       5    8    1        -0.7740721867E+01      0.1875134325E+02
          0                 3           2             5    6     1       0.9567949272E-02       5    8    1         0.5418453859E+00      0.1312965272E+01
          0                 4           2             5    6     1      -0.3807180474E-03       5    8    1        -0.2216153211E-01      0.5372953632E-01
          0                 5           1             5    6     1       0.4694410713E-05       5    8    1         0.2808548879E-03      0.6866487926E-03

    ------------------------------------------------
       NWT REQUIRED            5 OUTER ITERATIONS 
       AND A TOTAL OF          9 INNER ITERATIONS.
    ------------------------------------------------

 NO OUTPUT CONTROL FOR STRESS PERIOD   20   TIME STEP   12
 
 SOLVING FOR HEAD 
                                                   Max.-Head-Change                         Max.-Flux-Residual
  Residual-Control   Outer-Iter.   Inner-Iter.     Column Row Layer    Maximum-Head-Change  Column Row Layer    Maximum-Flux-Residual          L2-NORM 
          0                 1           2             5    8     1       0.6408933395E-01       5    8    1         0.3509749605E+01      0.7699265602E+01
          0                 2           2             4    7     1      -0.3219453163E+00       5    8    1        -0.1749243564E+02      0.4263261574E+02
          0                 3           2             4    7     1       0.2192275901E-01       5    8    1         0.1224325920E+01      0.2984165752E+01
          0                 4           2             4    7     1      -0.8723295952E-03       5    8    1        -0.5006379126E-01      0.1220495643E+00
          0                 5           1             4    7     1       0.1075619829E-04       5    8    1         0.6336919946E-03      0.1549511692E-02

    ------------------------------------------------
       NWT REQUIRED            5 OUTER ITERATIONS 
       AND A TOTAL OF          9 INNER ITERATIONS.
    ------------------------------------------------

 NO OUTPUT CONTROL FOR STRESS PERIOD   20   TIME STEP   13
 
 SOLVING FOR HEAD 
                                                   Max.-Head-Change                         Max.-Flux-Residual
  Residual-Control   Outer-Iter.   Inner-Iter.     Column Row Layer    Maximum-Head-Change  Column Row Layer    Maximum-Flux-Residual          L2-NORM 
          0                 1           2             5    8     1       0.7011697770E-01       5    8    1         0.3840479634E+01      0.8434774839E+01
          0                 2           2             5    6     1      -0.1411597670E+00       5    8    1        -0.7777922052E+01      0.1882585019E+02
          0                 3           2             5    6     1       0.9612374290E-02       5    8    1         0.5444494196E+00      0.1318171454E+01
          0                 4           2             5    6     1      -0.3824857580E-03       5    8    1        -0.2226803713E-01      0.5394186649E-01
          0                 5           1             5    6     1       0.4716207232E-05       5    8    1         0.2822046258E-03      0.6893002811E-03

    ------------------------------------------------
       NWT REQUIRED            5 OUTER ITERATIONS 
       AND A TOTAL OF          9 INNER ITERATIONS.
    ------------------------------------------------

 NO OUTPUT CONTROL FOR STRESS PERIOD   20   TIME STEP   14
 
 SOLVING FOR HEAD 
                                                   Max.-Head-Change                         Max.-Flux-Residual
  Residual-Control   Outer-Iter.   Inner-Iter.     Column Row Layer    Maximum-Head-Change  Column Row Layer    Maximum-Flux-Residual          L2-NORM 
          0                 1           2             5    8     1       0.7057475752E-01       5    8    1         0.3863674787E+01      0.8539272601E+01
          0                 2           2             4    7     1      -0.3223130509E+00       5    8    1        -0.1752782727E+02      0.4270427854E+02
          0                 3           2             4    7     1       0.2194780460E-01       5    8    1         0.1226815935E+01      0.2989199044E+01
          0                 4           2             4    7     1      -0.8733261598E-03       5    8    1        -0.5016685025E-01      0.1222559664E+00
          0                 5           1             4    7     1       0.1076848620E-04       5    8    1         0.6350807862E-03      0.1551797105E-02

    ------------------------------------------------
       NWT REQUIRED            5 OUTER ITERATIONS 
       AND A TOTAL OF          9 INNER ITERATIONS.
    ------------------------------------------------

 NO OUTPUT CONTROL FOR STRESS PERIOD   20   TIME STEP   15
 
 SOLVING FOR HEAD 
                                                   Max.-Head-Change                         Max.-Flux-Residual
  Residual-Control   Outer-Iter.   Inner-Iter.     Column Row Layer    Maximum-Head-Change  Column Row Layer    Maximum-Flux-Residual          L2-NORM 
          0                 1           2             5    8     1       0.7629760601E-01       5    8    1         0.4177481071E+01      0.9242152880E+01
          0                 2           2             5    6     1      -0.1417553806E+00       5    8    1        -0.7811621262E+01      0.1889595149E+02
          0                 3           2             5    6     1       0.9652933914E-02       5    8    1         0.5468083924E+00      0.1323067670E+01
          0                 4           2             5    6     1      -0.3840996608E-03       5    8    1        -0.2236451915E-01      0.5414110520E-01
          0                 5           1             5    6     1       0.4736107227E-05       5    8    1         0.2834273409E-03      0.6916076447E-03

    ------------------------------------------------
       NWT REQUIRED            5 OUTER ITERATIONS 
       AND A TOTAL OF          9 INNER ITERATIONS.
    ------------------------------------------------

 NO OUTPUT CONTROL FOR STRESS PERIOD   20   TIME STEP   16
 
 SOLVING FOR HEAD 
                                                   Max.-Head-Change                         Max.-Flux-Residual
  Residual-Control   Outer-Iter.   Inner-Iter.     Column Row Layer    Maximum-Head-Change  Column Row Layer    Maximum-Flux-Residual          L2-NORM 
          0                 1           2             5    8     1       0.7647007617E-01       5    8    1         0.4184846320E+01      0.9316716390E+01
          0                 2           2             4    7     1      -0.3226865440E+00       5    8    1        -0.1755994352E+02      0.4277174333E+02
          0                 3           2             4    7     1       0.2197324134E-01       5    8    1         0.1229075096E+01      0.2993940125E+01
          0                 4           2             4    7     1      -0.8743382943E-03       5    8    1        -0.5026031278E-01      0.1224512460E+00
          0                 5           1             4    7     1       0.1078096611E-04       5    8    1         0.6363374441E-03      0.1554114404E-02

    ------------------------------------------------
       NWT REQUIRED            5 OUTER ITERATIONS 
       AND A TOTAL OF          9 INNER ITERATIONS.
    ------------------------------------------------

 NO OUTPUT CONTROL FOR STRESS PERIOD   20   TIME STEP   17
 
 SOLVING FOR HEAD 
                                                   Max.-Head-Change                         Max.-Flux-Residual
  Residual-Control   Outer-Iter.   Inner-Iter.     Column Row Layer    Maximum-Head-Change  Column Row Layer    Maximum-Flux-Residual          L2-NORM 
          0                 1           2             5    8     1       0.8192542995E-01       5    8    1         0.4483820144E+01      0.9990150048E+01
          0                 2           2             5    6     1      -0.1423007412E+00       5    8    1        -0.7842254241E+01      0.1896199696E+02
          0                 3           2             5    6     1       0.9690071525E-02       5    8    1         0.5489527345E+00      0.1327682624E+01
          0                 4           2             5    6     1      -0.3855773981E-03       5    8    1        -0.2245222269E-01      0.5432917689E-01
          0                 5           1             5    6     1       0.4754328233E-05       5    8    1         0.2845388344E-03      0.6938568502E-03

    ------------------------------------------------
       NWT REQUIRED            5 OUTER ITERATIONS 
       AND A TOTAL OF          9 INNER ITERATIONS.
    ------------------------------------------------

 NO OUTPUT CONTROL FOR STRESS PERIOD   20   TIME STEP   18
 
 SOLVING FOR HEAD 
                                                   Max.-Head-Change                         Max.-Flux-Residual
  Residual-Control   Outer-Iter.   Inner-Iter.     Column Row Layer    Maximum-Head-Change  Column Row Layer    Maximum-Flux-Residual          L2-NORM 
          0                 1           2             5    8     1       0.8184712766E-01       5    8    1         0.4477290999E+01      0.1003806112E+02
          0                 2           2             4    7     1      -0.3230632173E+00       5    8    1        -0.1758918710E+02      0.4283534976E+02
          0                 3           2             4    7     1       0.2199889379E-01       5    8    1         0.1231131803E+01      0.2998410545E+01
          0                 4           2             4    7     1      -0.8753590158E-03       5    8    1        -0.5034536115E-01      0.1226349232E+00
          0                 5           1             4    7     1       0.1079355221E-04       5    8    1         0.6374784070E-03      0.1556251092E-02

    ------------------------------------------------
       NWT REQUIRED            5 OUTER ITERATIONS 
       AND A TOTAL OF          9 INNER ITERATIONS.
    ------------------------------------------------

 NO OUTPUT CONTROL FOR STRESS PERIOD   20   TIME STEP   19
 
 SOLVING FOR HEAD 
                                                   Max.-Head-Change                         Max.-Flux-Residual
  Residual-Control   Outer-Iter.   Inner-Iter.     Column Row Layer    Maximum-Head-Change  Column Row Layer    Maximum-Flux-Residual          L2-NORM 
          0                 1           2             5    8     1       0.8706693567E-01       5    8    1         0.4763221689E+01      0.1068488501E+02
          0                 2           2             5    6     1      -0.1428014683E+00       5    8    1        -0.7870193482E+01      0.1902430415E+02
          0                 3           2             5    6     1       0.9724169787E-02       5    8    1         0.5509085189E+00      0.1332036287E+01
          0                 4           2             5    6     1      -0.3869341975E-03       5    8    1        -0.2253221421E-01      0.5450679930E-01
          0                 5           1             5    6     1       0.4771058544E-05       5    8    1         0.2855525681E-03      0.6961406196E-03

    ------------------------------------------------
       NWT REQUIRED            5 OUTER ITERATIONS 
       AND A TOTAL OF          9 INNER ITERATIONS.
    ------------------------------------------------

 NO OUTPUT CONTROL FOR STRESS PERIOD   20   TIME STEP   20
 
 SOLVING FOR HEAD 
                                                   Max.-Head-Change                         Max.-Flux-Residual
  Residual-Control   Outer-Iter.   Inner-Iter.     Column Row Layer    Maximum-Head-Change  Column Row Layer    Maximum-Flux-Residual          L2-NORM 
          0                 1           2             5    8     1       0.8676762489E-01       5    8    1         0.4744464022E+01      0.1070901736E+02
          0                 2           2             4    7     1      -0.3234408696E+00       5    8    1        -0.1761590353E+02      0.4289540395E+02
          0                 3           2             4    7     1       0.2202461215E-01       5    8    1         0.1233010419E+01      0.3002631039E+01
          0                 4           2             4    7     1      -0.8763823650E-03       5    8    1        -0.5042300952E-01      0.1228087658E+00
          0                 5           1             4    7     1       0.1080617046E-04       5    8    1         0.6385177139E-03      0.1558369185E-02

    ------------------------------------------------
       NWT REQUIRED            5 OUTER ITERATIONS 
       AND A TOTAL OF          9 INNER ITERATIONS.
    ------------------------------------------------

 NO OUTPUT CONTROL FOR STRESS PERIOD   20   TIME STEP   21
 
 SOLVING FOR HEAD 
                                                   Max.-Head-Change                         Max.-Flux-Residual
  Residual-Control   Outer-Iter.   Inner-Iter.     Column Row Layer    Maximum-Head-Change  Column Row Layer    Maximum-Flux-Residual          L2-NORM 
          0                 1           2             5    8     1       0.9177945066E-01       5    8    1         0.5018893413E+01      0.1133174912E+02
          0                 2           2             5    6     1      -0.1432624749E+00       5    8    1        -0.7895759763E+01      0.1908315632E+02
          0                 3           2             5    6     1       0.9755563247E-02       5    8    1         0.5526981989E+00      0.1336148429E+01
          0                 4           2             5    6     1      -0.3881833692E-03       5    8    1        -0.2260541206E-01      0.5467433914E-01
          0                 5           1             5    6     1       0.4786461032E-05       5    8    1         0.2864801932E-03      0.6980536001E-03

    ------------------------------------------------
       NWT REQUIRED            5 OUTER ITERATIONS 
       AND A TOTAL OF          9 INNER ITERATIONS.
    ------------------------------------------------

 NO OUTPUT CONTROL FOR STRESS PERIOD   20   TIME STEP   22
 
 SOLVING FOR HEAD 
                                                   Max.-Head-Change                         Max.-Flux-Residual
  Residual-Control   Outer-Iter.   Inner-Iter.     Column Row Layer    Maximum-Head-Change  Column Row Layer    Maximum-Flux-Residual          L2-NORM 
          0                 1           2             5    8     1       0.9128469495E-01       5    8    1         0.4989337644E+01      0.1133470033E+02
          0                 2           2             4    7     1      -0.3238176106E+00       5    8    1        -0.1764039004E+02      0.4295218135E+02
          0                 3           2             4    7     1       0.2205026780E-01       5    8    1         0.1234731905E+01      0.3006620419E+01
          0                 4           2             4    7     1      -0.8774032228E-03       5    8    1        -0.5049413025E-01      0.1229731059E+00
          0                 5           1             4    7     1       0.1081875801E-04       5    8    1         0.6394674201E-03      0.1560409407E-02

    ------------------------------------------------
       NWT REQUIRED            5 OUTER ITERATIONS 
       AND A TOTAL OF          9 INNER ITERATIONS.
    ------------------------------------------------

 NO OUTPUT CONTROL FOR STRESS PERIOD   20   TIME STEP   23
 
 SOLVING FOR HEAD 
                                                   Max.-Head-Change                         Max.-Flux-Residual
  Residual-Control   Outer-Iter.   Inner-Iter.     Column Row Layer    Maximum-Head-Change  Column Row Layer    Maximum-Flux-Residual          L2-NORM 
          0                 1           2             5    8     1       0.9611249723E-01       5    8    1         0.5253605614E+01      0.1193574440E+02
          0                 2           2             5    6     1      -0.1436880463E+00       5    8    1        -0.7919230118E+01      0.1913883611E+02
          0                 3           2             5    6     1       0.9784543697E-02       5    8    1         0.5543411657E+00      0.1340038835E+01
          0                 4           2             5    6     1      -0.3893365255E-03       5    8    1        -0.2267260930E-01      0.5483291151E-01
          0                 5           1             5    6     1       0.4800679860E-05       5    8    1         0.2873317985E-03      0.6999994815E-03

    ------------------------------------------------
       NWT REQUIRED            5 OUTER ITERATIONS 
       AND A TOTAL OF          9 INNER ITERATIONS.
    ------------------------------------------------

 NO OUTPUT CONTROL FOR STRESS PERIOD   20   TIME STEP   24
 
 SOLVING FOR HEAD 
                                                   Max.-Head-Change                         Max.-Flux-Residual
  Residual-Control   Outer-Iter.   Inner-Iter.     Column Row Layer    Maximum-Head-Change  Column Row Layer    Maximum-Flux-Residual          L2-NORM 
          0                 1           2             5    8     1       0.9544445721E-01       5    8    1         0.5214488213E+01      0.1191967746E+02
          0                 2           2             4    7     1      -0.3241918592E+00       5    8    1        -0.1766290426E+02      0.4300593347E+02
          0                 3           2             4    7     1       0.2207575318E-01       5    8    1         0.1236314428E+01      0.3010396365E+01
          0                 4           2             4    7     1      -0.8784173076E-03       5    8    1        -0.5055947948E-01      0.1231286476E+00
          0                 5           1             4    7     1       0.1083126257E-04       5    8    1         0.6403379889E-03      0.1562365487E-02

    ------------------------------------------------
       NWT REQUIRED            5 OUTER ITERATIONS 
       AND A TOTAL OF          9 INNER ITERATIONS.
    ------------------------------------------------

 NO OUTPUT CONTROL FOR STRESS PERIOD   20   TIME STEP   25
 
 SOLVING FOR HEAD 
                                                   Max.-Head-Change                         Max.-Flux-Residual
  Residual-Control   Outer-Iter.   Inner-Iter.     Column Row Layer    Maximum-Head-Change  Column Row Layer    Maximum-Flux-Residual          L2-NORM 
          0                 1           2             5    8     1       0.1001087987E+00       5    8    1         0.5469741963E+01      0.1250080899E+02
          0                 2           2             5    6     1      -0.1440819423E+00       5    8    1        -0.7940842917E+01      0.1919156195E+02
          0                 3           2             5    6     1       0.9811367173E-02       5    8    1         0.5558541046E+00      0.1343722734E+01
          0                 4           2             5    6     1      -0.3904038534E-03       5    8    1        -0.2273448840E-01      0.5498305507E-01
          0                 5           1             5    6     1       0.4813840483E-05       5    8    1         0.2881159980E-03      0.7017671533E-03

    ------------------------------------------------
       NWT REQUIRED            5 OUTER ITERATIONS 
       AND A TOTAL OF          9 INNER ITERATIONS.
    ------------------------------------------------

 NO OUTPUT CONTROL FOR STRESS PERIOD   20   TIME STEP   26
 
 SOLVING FOR HEAD 
                                                   Max.-Head-Change                         Max.-Flux-Residual
  Residual-Control   Outer-Iter.   Inner-Iter.     Column Row Layer    Maximum-Head-Change  Column Row Layer    Maximum-Flux-Residual          L2-NORM 
          0                 1           2             5    8     1       0.9928688057E-01       5    8    1         0.5422145906E+01      0.1246758278E+02
          0                 2           2             4    7     1      -0.3245623130E+00       5    8    1        -0.1768366923E+02      0.4305688560E+02
          0                 3           2             4    7     1       0.2210097965E-01       5    8    1         0.1237773711E+01      0.3013975192E+01
          0                 4           2             4    7     1      -0.8794210927E-03       5    8    1        -0.5061971113E-01      0.1232760743E+00
          0                 5           1             4    7     1       0.1084363965E-04       5    8    1         0.6411385102E-03      0.1564215679E-02

    ------------------------------------------------
       NWT REQUIRED            5 OUTER ITERATIONS 
       AND A TOTAL OF          9 INNER ITERATIONS.
    ------------------------------------------------

 NO OUTPUT CONTROL FOR STRESS PERIOD   20   TIME STEP   27
 
 SOLVING FOR HEAD 
                                                   Max.-Head-Change                         Max.-Flux-Residual
  Residual-Control   Outer-Iter.   Inner-Iter.     Column Row Layer    Maximum-Head-Change  Column Row Layer    Maximum-Flux-Residual          L2-NORM 
          0                 1           2             5    8     1       0.1038055198E+00       5    8    1         0.5669374908E+01      0.1303054224E+02
          0                 2           2             5    6     1      -0.1444474446E+00       5    8    1        -0.7960805405E+01      0.1924155751E+02
          0                 3           2             5    6     1       0.9836257124E-02       5    8    1         0.5572515222E+00      0.1347217970E+01
          0                 4           2             5    6     1      -0.3913942453E-03       5    8    1        -0.2279164266E-01      0.5512586111E-01
          0                 5           1             5    6     1       0.4826052452E-05       5    8    1         0.2888403305E-03      0.7035915683E-03

    ------------------------------------------------
       NWT REQUIRED            5 OUTER ITERATIONS 
       AND A TOTAL OF          9 INNER ITERATIONS.
    ------------------------------------------------

 NO OUTPUT CONTROL FOR STRESS PERIOD   20   TIME STEP   28
 
 SOLVING FOR HEAD 
                                                   Max.-Head-Change                         Max.-Flux-Residual
  Residual-Control   Outer-Iter.   Inner-Iter.     Column Row Layer    Maximum-Head-Change  Column Row Layer    Maximum-Flux-Residual          L2-NORM 
          0                 1           2             5    8     1       0.1028464213E+00       5    8    1         0.5614230198E+01      0.1298184829E+02
          0                 2           2             4    7     1      -0.3249278326E+00       5    8    1        -0.1770287689E+02      0.4310524345E+02
          0                 3           2             4    7     1       0.2212586972E-01       5    8    1         0.1239123284E+01      0.3017370261E+01
          0                 4           2             4    7     1      -0.8804114939E-03       5    8    1        -0.5067538789E-01      0.1234158858E+00
          0                 5           1             4    7     1       0.1085585150E-04       5    8    1         0.6418766720E-03      0.1566018012E-02

    ------------------------------------------------
       NWT REQUIRED            5 OUTER ITERATIONS 
       AND A TOTAL OF          9 INNER ITERATIONS.
    ------------------------------------------------

 NO OUTPUT CONTROL FOR STRESS PERIOD   20   TIME STEP   29
 
 SOLVING FOR HEAD 
                                                   Max.-Head-Change                         Max.-Flux-Residual
  Residual-Control   Outer-Iter.   Inner-Iter.     Column Row Layer    Maximum-Head-Change  Column Row Layer    Maximum-Flux-Residual          L2-NORM 
          0                 1           2             5    8     1       0.1072329693E+00       5    8    1         0.5854322308E+01      0.1352758497E+02
          0                 2           2             5    6     1      -0.1566972237E+00       5    8    1        -0.8634004834E+01      0.2088567527E+02
          0                 3           2             5    6     1       0.1067040742E-01       5    8    1         0.6043746000E+00      0.1462343468E+01
          0                 4           2             5    6     1      -0.4245859336E-03       5    8    1        -0.2471898340E-01      0.5983733800E-01
          0                 5           1             5    6     1       0.5235319602E-05       5    8    1         0.3132656661E-03      0.7635152706E-03

    ------------------------------------------------
       NWT REQUIRED            5 OUTER ITERATIONS 
       AND A TOTAL OF          9 INNER ITERATIONS.
    ------------------------------------------------

 NO OUTPUT CONTROL FOR STRESS PERIOD   20   TIME STEP   30



 STREAM LISTING     PERIOD     20   STEP       30

 LAYER ROW COL. STREAM  RCH.  FLOW INTO     FLOW TO   FLOW OUT OF   OVRLND.     DIRECT     STREAM       STREAM     STREAM     STREAM   STREAMBED  STREAMBED
                SEG.NO.  NO.  STRM. RCH.    AQUIFER    STRM. RCH.    RUNOFF     PRECIP       ET          HEAD       DEPTH      WIDTH   CONDCTNC.   GRADIENT

   1    1    1     1     1    1.6138E+01  1.9509E-01   1.5943E+01  0.000E+00  0.000E+00  0.000E+00  1.09408E+03  1.032E+00  1.075E+01  4.839E-02  1.344E+00
   1    2    2     1     2    1.5943E+01  3.0079E-01   1.5642E+01  0.000E+00  0.000E+00  0.000E+00  1.08909E+03  1.027E+00  1.067E+01  7.469E-02  1.342E+00
   1    3    3     1     3    1.5642E+01  2.5522E-01   1.5387E+01  0.000E+00  0.000E+00  0.000E+00  1.08344E+03  1.022E+00  1.058E+01  6.345E-02  1.341E+00
   1    3    4     1     4    1.5387E+01  2.3394E-01   1.5153E+01  0.000E+00  0.000E+00  0.000E+00  1.07843E+03  1.017E+00  1.049E+01  5.823E-02  1.339E+00
   1    4    5     2     1    1.3153E+01  2.9763E-01   1.2856E+01  0.000E+00  0.000E+00  0.000E+00  1.07275E+03  8.158E-01  1.200E+01  7.800E-02  1.272E+00
   1    5    6     2     2    1.2856E+01  2.2835E-01   1.2627E+01  0.000E+00  0.000E+00  0.000E+00  1.06732E+03  8.059E-01  1.200E+01  6.000E-02  1.269E+00
   1    6    6     2     3    1.2627E+01  2.2783E-01   1.2399E+01  0.000E+00  0.000E+00  0.000E+00  1.06259E+03  7.972E-01  1.200E+01  6.000E-02  1.266E+00
   1    7    6     2     4    1.2399E+01  2.2731E-01   1.2172E+01  0.000E+00  0.000E+00  0.000E+00  1.05786E+03  7.885E-01  1.200E+01  6.000E-02  1.263E+00
   1    8    6     2     5    1.2172E+01  2.2678E-01   1.1945E+01  0.000E+00  0.000E+00  0.000E+00  1.05314E+03  7.797E-01  1.200E+01  6.000E-02  1.260E+00
   1    3    5     3     1    2.0000E+00  2.8252E-01   1.7175E+00  0.000E+00  0.000E+00  0.000E+00  1.07555E+03  1.909E+00  9.636E+00  7.227E-02  1.955E+00
   1    3    6     3     2    1.7175E+00  2.4905E-01   1.4684E+00  0.000E+00  0.000E+00  0.000E+00  1.07264E+03  1.727E+00  8.909E+00  6.682E-02  1.864E+00
   1    3    7     3     3    1.4684E+00  1.9718E-01   1.2712E+00  0.000E+00  0.000E+00  0.000E+00  1.06987E+03  1.555E+00  8.218E+00  5.547E-02  1.777E+00
   1    4    8     3     4    1.2712E+00  2.2567E-01   1.0456E+00  0.000E+00  0.000E+00  0.000E+00  1.06682E+03  1.364E+00  7.455E+00  6.709E-02  1.682E+00
   1    5    8     3     5    1.0456E+00  1.5790E-01   8.8768E-01  0.000E+00  0.000E+00  0.000E+00  1.06362E+03  1.164E+00  6.655E+00  4.991E-02  1.582E+00
   1    6    8     3     6    8.8768E-01  5.5980E-02   8.3170E-01  0.000E+00  0.000E+00  0.000E+00  1.06158E+03  1.036E+00  6.145E+00  1.844E-02  1.518E+00
   1    5   10     4     1    1.0000E+01  9.0919E-02   9.9091E+00  0.000E+00  0.000E+00  0.000E+00  1.07836E+03  6.368E-01  1.000E+01  2.500E-02  1.212E+00
   1    5    9     4     2    9.9091E+00  1.8158E-01   9.7275E+00  0.000E+00  0.000E+00  0.000E+00  1.07154E+03  6.315E-01  1.000E+01  5.000E-02  1.211E+00
   1    6    8     4     3    9.7275E+00  1.2689E-01   9.6006E+00  0.000E+00  0.000E+00  0.000E+00  1.06381E+03  6.256E-01  1.000E+01  3.500E-02  1.209E+00
   1    6    8     5     1    1.0432E+01  2.2686E-01   1.0205E+01  0.000E+00  0.000E+00  0.000E+00  1.05868E+03  6.790E-01  1.542E+01  6.166E-02  1.226E+00
   1    7    7     5     2    1.0205E+01  2.7894E-01   9.9265E+00  0.000E+00  0.000E+00  0.000E+00  1.05417E+03  6.732E-01  1.519E+01  7.594E-02  1.224E+00
   1    8    7     5     3    9.9265E+00  1.9221E-01   9.7343E+00  0.000E+00  0.000E+00  0.000E+00  1.04992E+03  6.676E-01  1.497E+01  5.241E-02  1.223E+00
   1    8    6     5     4    9.7343E+00  1.3577E-01   9.5985E+00  0.000E+00  0.000E+00  0.000E+00  1.04691E+03  6.637E-01  1.482E+01  3.706E-02  1.221E+00
   1    9    6     6     1    9.5985E+00  2.2097E-01   9.3776E+00  0.000E+00  0.000E+00  0.000E+00  1.04341E+03  6.828E-01  1.200E+01  6.000E-02  1.228E+00
   1   10    7     6     2    9.3776E+00  2.2039E-01   9.1572E+00  0.000E+00  0.000E+00  0.000E+00  1.03885E+03  6.732E-01  1.200E+01  6.000E-02  1.224E+00
   1   11    7     6     3    9.1572E+00  2.1981E-01   8.9374E+00  0.000E+00  0.000E+00  0.000E+00  1.03430E+03  6.636E-01  1.200E+01  6.000E-02  1.221E+00
   1   12    7     6     4    8.9374E+00  2.1923E-01   8.7181E+00  0.000E+00  0.000E+00  0.000E+00  1.02974E+03  6.539E-01  1.200E+01  6.000E-02  1.218E+00
   1   13    7     6     5    8.7181E+00 -4.1838E-02   8.7600E+00  0.000E+00  0.000E+00  0.000E+00  1.02656E+03  6.499E-01  1.200E+01  2.400E-01 -5.811E-02
   1   14    9     7     1    1.5000E+02  1.3730E+00   1.4863E+02  0.000E+00  0.000E+00  0.000E+00  1.03987E+03  2.288E+00  5.529E+01  5.593E-01  8.183E-01
   1   13    8     7     2    1.4863E+02  1.9425E+00   1.4668E+02  0.000E+00  0.000E+00  0.000E+00  1.03478E+03  2.279E+00  5.525E+01  6.147E-01  1.053E+00
   1   13    7     7     3    1.4668E+02  1.6502E+00   1.4503E+02  0.000E+00  0.000E+00  0.000E+00  1.02969E+03  2.269E+00  5.521E+01  5.584E-01  9.851E-01
   1   13    6     8     1    1.5379E+02  1.0039E+00   1.5279E+02  0.000E+00  0.000E+00  0.000E+00  1.02471E+03  2.840E+00  4.118E+01  4.196E-01  7.975E-01
   1   13    5     8     2    1.5279E+02  2.6570E-01   1.5252E+02  0.000E+00  0.000E+00  0.000E+00  1.01846E+03  2.835E+00  4.111E+01  4.190E-01  2.114E-01
   1   13    4     8     3    1.5252E+02 -2.1051E+00   1.5463E+02  0.000E+00  0.000E+00  0.000E+00  1.01222E+03  2.842E+00  4.121E+01  4.199E+00 -1.671E-01
   1   13    3     8     4    1.5463E+02 -3.4778E+00   1.5811E+02  0.000E+00  0.000E+00  0.000E+00  1.00599E+03  2.861E+00  4.149E+01  4.228E+00 -2.742E-01
   1   13    2     8     5    1.5811E+02 -2.5423E+00   1.6065E+02  0.000E+00  0.000E+00  0.000E+00  9.99757E+02  2.882E+00  4.178E+01  4.258E+00 -1.990E-01
   1   13    1     8     6    1.6065E+02 -1.9782E+00   1.6263E+02  0.000E+00  0.000E+00  0.000E+00  9.94772E+02  2.897E+00  4.200E+01  2.568E+00 -2.568E-01
   1    8    6     9     1    1.1945E+01  0.0000E+00   1.1945E+01  0.000E+00  0.000E+00  0.000E+00  1.08127E+03  2.521E+00  4.000E+00  0.000E+00  1.840E+00
   1    8    5     9     2    1.1945E+01  0.0000E+00   1.1945E+01  0.000E+00  0.000E+00  0.000E+00  1.08077E+03  2.521E+00  4.000E+00  0.000E+00  1.840E+00





UNSATURATED ZONE PACKAGE VOLUMETRIC BUDGET FOR  TIME STEP    30 STRESS PERIOD   20
  ------------------------------------------------------------------------------



     CUMULATIVE VOLUMES      L**3       RATES FOR THIS TIME STEP      L**3/T
     ------------------                 ------------------------

           IN:                                      IN:
           ---                                      ---
        INFILTRATION =  1023386602.9685          INFILTRATION =          64.6445

          OUT:                                     OUT:
          ----                                     ----
              UZF ET =   805564348.8530                UZF ET =          64.1075
        UZF RECHARGE =      167968.6155          UZF RECHARGE =       0.0000E+00

            IN - OUT =   217654285.5000              IN - OUT =           0.5370

          STORAGE:                                 STORAGE:
          --------                                 --------
      STORAGE CHANGE =   217654272.2398        STORAGE CHANGE =           0.5370

 PERCENT DISCREPANCY IS DIFFERENCE BETWEEN IN-OUT MINUS CHANGE IN STORAGE
 DIVIDED BY THE AVERAGE OF IN AND OUT TIMES 100

 PERCENT DISCREPANCY =           0.00     PERCENT DISCREPANCY =           0.00






1
  VOLUMETRIC BUDGET FOR AGRICULTURAL FIELDS AT  END OF TIME STEP   30, STRESS PERIOD  20
  ------------------------------------------------------------------------------

     CUMULATIVE VOLUMES      L**3       RATES FOR THIS TIME STEP      L**3/T
     ------------------                 ------------------------

           IN:                                      IN:
           ---                                      ---
               AG WELLS  =   471641888.0000                 AG WELLS  =          48.2915
      DIVERSION SEGMENTS =   331563136.0000        DIVERSION SEGMENTS =          11.9453
           GW IRRIGATION =           0.0000             GW IRRIGATION =           0.0000
           SW IRRIGATION =           0.0000             SW IRRIGATION =           0.0000
        SYSTEM LOSSES GW =           0.0000          SYSTEM LOSSES GW =           0.0000
        SYSTEM LOSSES SW =           0.0000          SYSTEM LOSSES SW =           0.0000

                TOTAL IN =   803204992.0000                  TOTAL IN =          60.2368

          OUT:                                     OUT:
          ----                                     ----
               AG WELLS  =           0.0000                 AG WELLS  =           0.0000
      DIVERSION SEGMENTS =           0.0000        DIVERSION SEGMENTS =           0.0000
           GW IRRIGATION =   471641888.0000             GW IRRIGATION =          48.2915
           SW IRRIGATION =   331569984.0000             SW IRRIGATION =          11.9455
        SYSTEM LOSSES GW =           0.0000          SYSTEM LOSSES GW =           0.0000
        SYSTEM LOSSES SW =           0.0000          SYSTEM LOSSES SW =           0.0000

               TOTAL OUT =   803211904.0000                 TOTAL OUT =          60.2370

                IN - OUT =       -6912.0000                  IN - OUT =      -2.4033E-04

     PERCENT DISCREPANCY =          -0.00         PERCENT DISCREPANCY =          -0.00



1
  VOLUMETRIC BUDGET FOR ENTIRE MODEL AT END OF TIME STEP   30, STRESS PERIOD  20
  ------------------------------------------------------------------------------

     CUMULATIVE VOLUMES      L**3       RATES FOR THIS TIME STEP      L**3/T
     ------------------                 ------------------------

           IN:                                      IN:
           ---                                      ---
             STORAGE     =   626465664.0000               STORAGE     =          46.8995
       CONSTANT HEAD     =           0.0000         CONSTANT HEAD     =           0.0000
     HEAD DEP BOUNDS     =    14417131.0000       HEAD DEP BOUNDS     =           0.2883
      STREAM LEAKAGE     =   590335552.0000        STREAM LEAKAGE     =          11.7101
        UZF RECHARGE     =      167968.5625          UZF RECHARGE     =           0.0000
               GW ET     =           0.0000                 GW ET     =           0.0000
     SURFACE LEAKAGE     =           0.0000       SURFACE LEAKAGE     =           0.0000
           AG WELLS      =           0.0000             AG WELLS      =           0.0000

                TOTAL IN =  1231386368.0000                  TOTAL IN =          58.8979

          OUT:                                     OUT:
          ----                                     ----
             STORAGE     =   232384784.0000               STORAGE     =           0.1746
       CONSTANT HEAD     =           0.0000         CONSTANT HEAD     =           0.0000
     HEAD DEP BOUNDS     =    14422650.0000       HEAD DEP BOUNDS     =           0.2866
      STREAM LEAKAGE     =   512943040.0000        STREAM LEAKAGE     =          10.1452
        UZF RECHARGE     =           0.0000          UZF RECHARGE     =           0.0000
               GW ET     =           0.0000                 GW ET     =           0.0000
     SURFACE LEAKAGE     =           0.0000       SURFACE LEAKAGE     =           0.0000
           AG WELLS      =   471641888.0000             AG WELLS      =          48.2915

               TOTAL OUT =  1231392384.0000                 TOTAL OUT =          58.8979

                IN - OUT =       -6016.0000                  IN - OUT =       3.0518E-05

     PERCENT DISCREPANCY =          -0.00         PERCENT DISCREPANCY =           0.00






         TIME SUMMARY AT END OF TIME STEP   30 IN STRESS PERIOD   20
                    SECONDS     MINUTES      HOURS       DAYS        YEARS
                    -----------------------------------------------------------
   TIME STEP LENGTH  87667.      1461.1      24.352      1.0147     2.77799E-03
 STRESS PERIOD TIME 2.63000E+06  43833.      730.56      30.440     8.33397E-02
         TOTAL TIME 5.00565E+07 8.34276E+05  13905.      579.36      1.5862    
1
1
                            STRESS PERIOD NO.   21, LENGTH =   2630000.    
                            -----------------------------------------------

                              NUMBER OF TIME STEPS =    30

                               MULTIPLIER FOR DELT =     1.000

                            INITIAL TIME STEP SIZE =   87666.66    

 REUSING NON-PARAMETER GHB CELLS FROM LAST STRESS PERIOD

      2 GHB CELLS

 REUSING STREAM SEGMENT DATA FROM LAST STRESS PERIOD



            AREAL INFILTRATION RATE
 READING ON UNIT   19 WITH FORMAT: (10F4.0)            

            1           2           3           4           5           6           7           8           9          10
 ........................................................................................................................
   1   1.2000E-09   0.000       0.000       0.000       0.000       0.000       0.000       0.000       0.000       0.000    
   2   2.1000E-09  2.0000E-09  8.0000E-10  8.5000E-09   0.000       0.000       0.000       0.000       0.000       0.000    
   3   5.0000E-10  1.1000E-09  8.8000E-09  5.5000E-09   0.000       0.000       0.000       0.000       0.000       0.000    
   4   8.5000E-09  1.1000E-09  1.1000E-09  1.1000E-09  2.0000E-09   0.000       0.000       0.000       0.000       0.000    
   5   8.5000E-09  1.1000E-09  1.1000E-09  1.1000E-09  1.1000E-09   0.000       0.000       0.000       0.000       0.000    
   6   8.5000E-09  5.2000E-09  2.1000E-09  1.1000E-09  1.5000E-09   0.000       0.000       0.000       0.000       0.000    
   7   8.5000E-09  5.2000E-09  2.1000E-09  1.2000E-09  2.0000E-09   0.000       0.000       0.000       0.000       0.000    
   8   5.0000E-10  5.2000E-09  2.1000E-09  1.2000E-09  5.0000E-09   0.000       0.000       0.000       0.000       0.000    
   9   5.0000E-10  5.2000E-09  2.1000E-09  1.2000E-09  5.0000E-09   0.000       0.000       0.000       0.000       0.000    
  10   5.0000E-10  5.2000E-09  2.1000E-09  1.2000E-09  5.8000E-09   0.000       0.000       0.000       0.000       0.000    
  11   1.0000E-10  1.1000E-09  1.1000E-09  1.2000E-09  5.0000E-09   0.000       0.000       0.000       0.000       0.000    
  12   1.1000E-09  1.1000E-09  1.1000E-09  1.1000E-09  2.0000E-09   0.000       0.000       0.000       0.000       0.000    
  13   1.1000E-09  2.2000E-09  2.2000E-09  2.1000E-09  1.0000E-09   0.000       0.000       0.000       0.000       0.000    
  14   2.0000E-10  5.5000E-09  5.5000E-09  5.2000E-09  1.0000E-09   0.000       0.000       0.000       0.000       0.000    
  15    0.000      8.8000E-09  8.8000E-09   0.000       0.000       0.000       0.000       0.000       0.000       0.000    

                  ET RATE =  3.250000E-07

 USING ET EXTINCTION DEPTH FROM PREVIOUS STRESS PERIOD. CURRENT PERIOD IS:      21

 USING EXTINCTION WATER CONTENT FROM PREVIOUS STRESS PERIOD. CURRENT PERIOD IS:      21

 USING AIR ENTRY PRESSURE FROM PREVIOUS STRESS PERIOD. CURRENT PERIOD IS:      21

 USING ROOT PRESSURE HEAD FROM PREVIOUS STRESS PERIOD. CURRENT PERIOD IS:      21

 USING ROOT ACTIVITY FROM PREVIOUS STRESS PERIOD. CURRENT PERIOD IS:      21

 PROCESSING AG STRESS PERIOD DATA

 READING AG STRESS PERIOD DATA

 READING IRRIGATION SEGMENT

 READING IRRIGATION WELL

 READING SUPPLEMENTAL WELL

 END PROCESSING AG STRESS PERIOD DATA OPTIONS
 
 SOLVING FOR HEAD 
                                                   Max.-Head-Change                         Max.-Flux-Residual
  Residual-Control   Outer-Iter.   Inner-Iter.     Column Row Layer    Maximum-Head-Change  Column Row Layer    Maximum-Flux-Residual          L2-NORM 
          0                 1           2             5    8     1       0.1065007286E+00       5    8    1         0.5811797346E+01      0.1350506903E+02
          0                 2           2             4    7     1      -0.2743065184E+00       5    8    1        -0.1498622636E+02      0.3644933866E+02
          0                 3           2             4    7     1       0.1867890492E-01       5    8    1         0.1049006442E+01      0.2551621154E+01
          0                 4           2             4    7     1      -0.7432527799E-03       5    8    1        -0.4290349379E-01      0.1043780546E+00
          0                 5           1             4    7     1       0.9164626532E-05       5    8    1         0.5436501269E-03      0.1325940906E-02

    ------------------------------------------------
       NWT REQUIRED            5 OUTER ITERATIONS 
       AND A TOTAL OF          9 INNER ITERATIONS.
    ------------------------------------------------

 NO OUTPUT CONTROL FOR STRESS PERIOD   21   TIME STEP    1
 
 SOLVING FOR HEAD 
                                                   Max.-Head-Change                         Max.-Flux-Residual
  Residual-Control   Outer-Iter.   Inner-Iter.     Column Row Layer    Maximum-Head-Change  Column Row Layer    Maximum-Flux-Residual          L2-NORM 
          0                 1           2             5    8     1       0.1092748297E+00       5    8    1         0.5962796280E+01      0.1386952870E+02
          0                 2           2             5    8     1      -0.4313183524E-01       5    8    1        -0.2385846281E+01      0.5632541265E+01
          0                 3           2             5    8     1       0.1558602202E-02       5    8    1         0.8898641053E-01      0.2099352336E+00
          0                 4           2             4    7     1      -0.1430146697E-02       5    8    1        -0.8186909548E-01      0.1997827462E+00
          0                 5           2             4    7     1      -0.1391512389E-02       4    7    1        -0.7890678938E-01      0.1932675045E+00
          0                 6           2             4    7     1      -0.1271024900E-02       5    8    1        -0.7207471471E-01      0.1765450648E+00
          0                 7           2             4    7     1      -0.1005141912E-02       5    8    1        -0.5699699247E-01      0.1396125870E+00
          0                 8           1             4    7     1       0.1242316706E-04       4    7    1         0.7239683409E-03      0.1773521699E-02

    ------------------------------------------------
       NWT REQUIRED            8 OUTER ITERATIONS 
       AND A TOTAL OF         15 INNER ITERATIONS.
    ------------------------------------------------

 NO OUTPUT CONTROL FOR STRESS PERIOD   21   TIME STEP    2
 
 SOLVING FOR HEAD 
                                                   Max.-Head-Change                         Max.-Flux-Residual
  Residual-Control   Outer-Iter.   Inner-Iter.     Column Row Layer    Maximum-Head-Change  Column Row Layer    Maximum-Flux-Residual          L2-NORM 
          0                 1           2             5    8     1       0.1053234248E+00       5    8    1         0.5742651784E+01      0.1348571976E+02
          0                 2           2             5    7     1      -0.2024717951E+00       5    8    1        -0.1110202033E+02      0.2696197819E+02
          0                 3           2             5    7     1       0.1378739611E-01       5    8    1         0.7771315728E+00      0.1887613652E+01
          0                 4           2             5    7     1      -0.5486142588E-03       5    8    1        -0.3178477285E-01      0.7722646630E-01
          0                 5           1             5    7     1       0.6764659052E-05       5    8    1         0.4028109679E-03      0.9829441270E-03

    ------------------------------------------------
       NWT REQUIRED            5 OUTER ITERATIONS 
       AND A TOTAL OF          9 INNER ITERATIONS.
    ------------------------------------------------

 NO OUTPUT CONTROL FOR STRESS PERIOD   21   TIME STEP    3
 
 SOLVING FOR HEAD 
                                                   Max.-Head-Change                         Max.-Flux-Residual
  Residual-Control   Outer-Iter.   Inner-Iter.     Column Row Layer    Maximum-Head-Change  Column Row Layer    Maximum-Flux-Residual          L2-NORM 
          0                 1           2             5    8     1       0.1061473627E+00       5    8    1         0.5786274625E+01      0.1362532996E+02
          0                 2           2             5    8     1      -0.6127623203E-01       5    8    1        -0.3383910256E+01      0.8089861584E+01
          0                 3           2             5    8     1       0.4172674988E-02       5    8    1         0.2368732256E+00      0.5672853013E+00
          0                 4           2             5    8     1      -0.1660346846E-03       5    8    1        -0.9688131184E-02      0.2327743116E-01
          0                 5           1             5    8     1       0.2047279585E-05       5    8    1         0.1227784833E-03      0.3087295917E-03

    ------------------------------------------------
       NWT REQUIRED            5 OUTER ITERATIONS 
       AND A TOTAL OF          9 INNER ITERATIONS.
    ------------------------------------------------

 NO OUTPUT CONTROL FOR STRESS PERIOD   21   TIME STEP    4
 
 SOLVING FOR HEAD 
                                                   Max.-Head-Change                         Max.-Flux-Residual
  Residual-Control   Outer-Iter.   Inner-Iter.     Column Row Layer    Maximum-Head-Change  Column Row Layer    Maximum-Flux-Residual          L2-NORM 
          0                 1           2             5    8     1       0.1028124113E+00       5    8    1         0.5599834658E+01      0.1330219166E+02
          0                 2           2             4    7     1      -0.2123129322E+00       5    8    1        -0.1161137557E+02      0.2823702899E+02
          0                 3           2             4    7     1       0.1445751797E-01       5    8    1         0.8127854884E+00      0.1976846694E+01
          0                 4           2             4    7     1      -0.5752791447E-03       5    8    1        -0.3324302450E-01      0.8087477533E-01
          0                 5           1             4    7     1       0.7093439845E-05       5    8    1         0.4212914996E-03      0.1028937167E-02

    ------------------------------------------------
       NWT REQUIRED            5 OUTER ITERATIONS 
       AND A TOTAL OF          9 INNER ITERATIONS.
    ------------------------------------------------

 NO OUTPUT CONTROL FOR STRESS PERIOD   21   TIME STEP    5
 
 SOLVING FOR HEAD 
                                                   Max.-Head-Change                         Max.-Flux-Residual
  Residual-Control   Outer-Iter.   Inner-Iter.     Column Row Layer    Maximum-Head-Change  Column Row Layer    Maximum-Flux-Residual          L2-NORM 
          0                 1           2             5    8     1       0.1041388511E+00       5    8    1         0.5671446489E+01      0.1348750343E+02
          0                 2           2             5    8     1      -0.5830164848E-01       5    8    1        -0.3219486965E+01      0.7710779647E+01
          0                 3           2             5    8     1       0.3970118249E-02       5    8    1         0.2253636800E+00      0.5407846349E+00
          0                 4           2             5    8     1      -0.1579747560E-03       5    8    1        -0.9217389708E-02      0.2219611160E-01
          0                 5           1             5    8     1       0.1947897110E-05       5    8    1         0.1168127269E-03      0.2954960203E-03

    ------------------------------------------------
       NWT REQUIRED            5 OUTER ITERATIONS 
       AND A TOTAL OF          9 INNER ITERATIONS.
    ------------------------------------------------

 NO OUTPUT CONTROL FOR STRESS PERIOD   21   TIME STEP    6
 
 SOLVING FOR HEAD 
                                                   Max.-Head-Change                         Max.-Flux-Residual
  Residual-Control   Outer-Iter.   Inner-Iter.     Column Row Layer    Maximum-Head-Change  Column Row Layer    Maximum-Flux-Residual          L2-NORM 
          0                 1           2             5    8     1       0.1008871252E+00       5    8    1         0.5490509877E+01      0.1317058117E+02
          0                 2           2             4    7     1      -0.2096754323E+00       5    8    1        -0.1144793173E+02      0.2785962563E+02
          0                 3           2             4    7     1       0.1427791595E-01       5    8    1         0.8013447950E+00      0.1950429199E+01
          0                 4           2             4    7     1      -0.5681326032E-03       5    8    1        -0.3277509773E-01      0.7979430716E-01
          0                 5           1             4    7     1       0.7005319790E-05       5    8    1         0.4153614200E-03      0.1015256032E-02

    ------------------------------------------------
       NWT REQUIRED            5 OUTER ITERATIONS 
       AND A TOTAL OF          9 INNER ITERATIONS.
    ------------------------------------------------

 NO OUTPUT CONTROL FOR STRESS PERIOD   21   TIME STEP    7
 
 SOLVING FOR HEAD 
                                                   Max.-Head-Change                         Max.-Flux-Residual
  Residual-Control   Outer-Iter.   Inner-Iter.     Column Row Layer    Maximum-Head-Change  Column Row Layer    Maximum-Flux-Residual          L2-NORM 
          0                 1           2             5    8     1       0.1022955871E+00       5    8    1         0.5566839458E+01      0.1335786549E+02
          0                 2           2             5    6     1      -0.5894184663E-01       5    8    1        -0.3253103430E+01      0.7812872882E+01
          0                 3           2             5    6     1       0.4013713606E-02       5    8    1         0.2277168252E+00      0.5479043083E+00
          0                 4           2             5    6     1      -0.1597094548E-03       5    8    1        -0.9313633494E-02      0.2248522500E-01
          0                 5           1             5    6     1       0.1969283318E-05       5    8    1         0.1180324352E-03      0.2987781699E-03

    ------------------------------------------------
       NWT REQUIRED            5 OUTER ITERATIONS 
       AND A TOTAL OF          9 INNER ITERATIONS.
    ------------------------------------------------

 NO OUTPUT CONTROL FOR STRESS PERIOD   21   TIME STEP    8
 
 SOLVING FOR HEAD 
                                                   Max.-Head-Change                         Max.-Flux-Residual
  Residual-Control   Outer-Iter.   Inner-Iter.     Column Row Layer    Maximum-Head-Change  Column Row Layer    Maximum-Flux-Residual          L2-NORM 
          0                 1           2             5    8     1       0.9922396278E-01       5    8    1         0.5396029237E+01      0.1305749640E+02
          0                 2           2             4    7     1      -0.2106955765E+00       5    8    1        -0.1148283070E+02      0.2796489322E+02
          0                 3           2             4    7     1       0.1434737812E-01       5    8    1         0.8037867304E+00      0.1957792048E+01
          0                 4           2             4    7     1      -0.5708965958E-03       5    8    1        -0.3287488054E-01      0.8009503072E-01
          0                 5           1             4    7     1       0.7039400528E-05       5    8    1         0.4166196882E-03      0.1018993127E-02

    ------------------------------------------------
       NWT REQUIRED            5 OUTER ITERATIONS 
       AND A TOTAL OF          9 INNER ITERATIONS.
    ------------------------------------------------

 NO OUTPUT CONTROL FOR STRESS PERIOD   21   TIME STEP    9
 
 SOLVING FOR HEAD 
                                                   Max.-Head-Change                         Max.-Flux-Residual
  Residual-Control   Outer-Iter.   Inner-Iter.     Column Row Layer    Maximum-Head-Change  Column Row Layer    Maximum-Flux-Residual          L2-NORM 
          0                 1           2             5    8     1       0.1007993575E+00       5    8    1         0.5481706307E+01      0.1325678462E+02
          0                 2           2             5    6     1      -0.5857635968E-01       5    8    1        -0.3231723347E+01      0.7777904992E+01
          0                 3           2             5    6     1       0.3988825475E-02       5    8    1         0.2262202359E+00      0.5454480581E+00
          0                 4           2             5    6     1      -0.1587191317E-03       5    8    1        -0.9252422848E-02      0.2238415946E-01
          0                 5           1             5    6     1       0.1957072245E-05       5    8    1         0.1172567190E-03      0.2974452796E-03

    ------------------------------------------------
       NWT REQUIRED            5 OUTER ITERATIONS 
       AND A TOTAL OF          9 INNER ITERATIONS.
    ------------------------------------------------

 NO OUTPUT CONTROL FOR STRESS PERIOD   21   TIME STEP   10
 
 SOLVING FOR HEAD 
                                                   Max.-Head-Change                         Max.-Flux-Residual
  Residual-Control   Outer-Iter.   Inner-Iter.     Column Row Layer    Maximum-Head-Change  Column Row Layer    Maximum-Flux-Residual          L2-NORM 
          0                 1           2             5    8     1       0.9785201418E-01       5    8    1         0.5317885463E+01      0.1296746645E+02
          0                 2           2             4    7     1      -0.2106131984E+00       5    8    1        -0.1146211425E+02      0.2793113204E+02
          0                 3           2             4    7     1       0.1434176586E-01       5    8    1         0.8023334316E+00      0.1955422924E+01
          0                 4           2             4    7     1      -0.5706732913E-03       5    8    1        -0.3281512772E-01      0.7999763060E-01
          0                 5           1             4    7     1       0.7036647315E-05       5    8    1         0.4158412121E-03      0.1017693120E-02

    ------------------------------------------------
       NWT REQUIRED            5 OUTER ITERATIONS 
       AND A TOTAL OF          9 INNER ITERATIONS.
    ------------------------------------------------

 NO OUTPUT CONTROL FOR STRESS PERIOD   21   TIME STEP   11
 
 SOLVING FOR HEAD 
                                                   Max.-Head-Change                         Max.-Flux-Residual
  Residual-Control   Outer-Iter.   Inner-Iter.     Column Row Layer    Maximum-Head-Change  Column Row Layer    Maximum-Flux-Residual          L2-NORM 
          0                 1           2             5    8     1       0.9954156675E-01       5    8    1         0.5410005295E+01      0.1317371191E+02
          0                 2           2             5    6     1      -0.5853285986E-01       5    8    1        -0.3228292786E+01      0.7784367756E+01
          0                 3           2             5    6     1       0.3985863330E-02       5    8    1         0.2259801039E+00      0.5458869619E+00
          0                 4           2             5    6     1      -0.1586012656E-03       5    8    1        -0.9242601386E-02      0.2240106704E-01
          0                 5           1             5    6     1       0.1955619189E-05       5    8    1         0.1171322492E-03      0.2974414242E-03

    ------------------------------------------------
       NWT REQUIRED            5 OUTER ITERATIONS 
       AND A TOTAL OF          9 INNER ITERATIONS.
    ------------------------------------------------

 NO OUTPUT CONTROL FOR STRESS PERIOD   21   TIME STEP   12
 
 SOLVING FOR HEAD 
                                                   Max.-Head-Change                         Max.-Flux-Residual
  Residual-Control   Outer-Iter.   Inner-Iter.     Column Row Layer    Maximum-Head-Change  Column Row Layer    Maximum-Flux-Residual          L2-NORM 
          0                 1           2             5    8     1       0.9670864916E-01       5    8    1         0.5252625861E+01      0.1289470384E+02
          0                 2           2             4    7     1      -0.2108330509E+00       5    8    1        -0.1145934212E+02      0.2793897179E+02
          0                 3           2             4    7     1       0.1435673387E-01       5    8    1         0.8021365078E+00      0.1955965812E+01
          0                 4           2             4    7     1      -0.5712688977E-03       5    8    1        -0.3280679161E-01      0.8001936554E-01
          0                 5           1             4    7     1       0.7043991344E-05       5    8    1         0.4157164299E-03      0.1017917133E-02

    ------------------------------------------------
       NWT REQUIRED            5 OUTER ITERATIONS 
       AND A TOTAL OF          9 INNER ITERATIONS.
    ------------------------------------------------

 NO OUTPUT CONTROL FOR STRESS PERIOD   21   TIME STEP   13
 
 SOLVING FOR HEAD 
                                                   Max.-Head-Change                         Max.-Flux-Residual
  Residual-Control   Outer-Iter.   Inner-Iter.     Column Row Layer    Maximum-Head-Change  Column Row Layer    Maximum-Flux-Residual          L2-NORM 
          0                 1           2             5    8     1       0.9850359784E-01       5    8    1         0.5350675642E+01      0.1310749821E+02
          0                 2           2             5    6     1      -0.5842019240E-01       5    8    1        -0.3221271368E+01      0.7780018395E+01
          0                 3           2             5    6     1       0.3978191144E-02       5    8    1         0.2254886121E+00      0.5455706791E+00
          0                 4           2             5    6     1      -0.1582959816E-03       5    8    1        -0.9222499310E-02      0.2238724992E-01
          0                 5           1             5    6     1       0.1951854818E-05       5    8    1         0.1168774966E-03      0.2971227117E-03

    ------------------------------------------------
       NWT REQUIRED            5 OUTER ITERATIONS 
       AND A TOTAL OF          9 INNER ITERATIONS.
    ------------------------------------------------

 NO OUTPUT CONTROL FOR STRESS PERIOD   21   TIME STEP   14
 
 SOLVING FOR HEAD 
                                                   Max.-Head-Change                         Max.-Flux-Residual
  Residual-Control   Outer-Iter.   Inner-Iter.     Column Row Layer    Maximum-Head-Change  Column Row Layer    Maximum-Flux-Residual          L2-NORM 
          0                 1           2             5    8     1       0.9576577920E-01       5    8    1         0.5198648645E+01      0.1283712406E+02
          0                 2           2             4    7     1      -0.2109503279E+00       5    8    1        -0.1145285260E+02      0.2793570105E+02
          0                 3           2             4    7     1       0.1436471737E-01       5    8    1         0.8016797886E+00      0.1955731616E+01
          0                 4           2             4    7     1      -0.5715865812E-03       5    8    1        -0.3278787058E-01      0.8000936286E-01
          0                 5           1             4    7     1       0.7047908951E-05       5    6    1         0.4154705744E-03      0.1017733696E-02

    ------------------------------------------------
       NWT REQUIRED            5 OUTER ITERATIONS 
       AND A TOTAL OF          9 INNER ITERATIONS.
    ------------------------------------------------

 NO OUTPUT CONTROL FOR STRESS PERIOD   21   TIME STEP   15
 
 SOLVING FOR HEAD 
                                                   Max.-Head-Change                         Max.-Flux-Residual
  Residual-Control   Outer-Iter.   Inner-Iter.     Column Row Layer    Maximum-Head-Change  Column Row Layer    Maximum-Flux-Residual          L2-NORM 
          0                 1           2             5    8     1       0.9764817118E-01       5    8    1         0.5301617700E+01      0.1305510570E+02
          0                 2           2             5    6     1      -0.5834872074E-01       5    8    1        -0.3216682346E+01      0.7779875123E+01
          0                 3           2             5    6     1       0.3973324215E-02       5    8    1         0.2251673859E+00      0.5455486719E+00
          0                 4           2             5    6     1      -0.1581023218E-03       5    8    1        -0.9209361118E-02      0.2238547025E-01
          0                 5           1             5    6     1       0.1949467110E-05       5    8    1         0.1167109717E-03      0.2969712365E-03

    ------------------------------------------------
       NWT REQUIRED            5 OUTER ITERATIONS 
       AND A TOTAL OF          9 INNER ITERATIONS.
    ------------------------------------------------

 NO OUTPUT CONTROL FOR STRESS PERIOD   21   TIME STEP   16
 
 SOLVING FOR HEAD 
                                                   Max.-Head-Change                         Max.-Flux-Residual
  Residual-Control   Outer-Iter.   Inner-Iter.     Column Row Layer    Maximum-Head-Change  Column Row Layer    Maximum-Flux-Residual          L2-NORM 
          0                 1           2             5    8     1       0.9499224884E-01       5    8    1         0.5154196444E+01      0.1279227557E+02
          0                 2           2             4    7     1      -0.2110828357E+00       5    8    1        -0.1144872509E+02      0.2793651983E+02
          0                 3           2             4    7     1       0.1437373823E-01       5    8    1         0.8013887117E+00      0.1955783996E+01
          0                 4           2             4    7     1      -0.5719455409E-03       5    8    1        -0.3277575451E-01      0.8001112296E-01
          0                 5           1             4    7     1       0.7052334993E-05       5    6    1         0.4153321138E-03      0.1017717577E-02

    ------------------------------------------------
       NWT REQUIRED            5 OUTER ITERATIONS 
       AND A TOTAL OF          9 INNER ITERATIONS.
    ------------------------------------------------

 NO OUTPUT CONTROL FOR STRESS PERIOD   21   TIME STEP   17
 
 SOLVING FOR HEAD 
                                                   Max.-Head-Change                         Max.-Flux-Residual
  Residual-Control   Outer-Iter.   Inner-Iter.     Column Row Layer    Maximum-Head-Change  Column Row Layer    Maximum-Flux-Residual          L2-NORM 
          0                 1           2             5    8     1       0.9695013658E-01       5    8    1         0.5261408140E+01      0.1301459004E+02
          0                 2           2             5    6     1      -0.5828341988E-01       5    8    1        -0.3212569739E+01      0.7779416713E+01
          0                 3           2             5    6     1       0.3968877486E-02       5    8    1         0.2248795075E+00      0.5455048554E+00
          0                 4           2             5    6     1      -0.1579253823E-03       5    8    1        -0.9197586861E-02      0.2238272017E-01
          0                 5           1             5    6     1       0.1947285285E-05       5    8    1         0.1165617764E-03      0.2967823358E-03

    ------------------------------------------------
       NWT REQUIRED            5 OUTER ITERATIONS 
       AND A TOTAL OF          9 INNER ITERATIONS.
    ------------------------------------------------

 NO OUTPUT CONTROL FOR STRESS PERIOD   21   TIME STEP   18
 
 SOLVING FOR HEAD 
                                                   Max.-Head-Change                         Max.-Flux-Residual
  Residual-Control   Outer-Iter.   Inner-Iter.     Column Row Layer    Maximum-Head-Change  Column Row Layer    Maximum-Flux-Residual          L2-NORM 
          0                 1           2             5    8     1       0.9436411357E-01       5    8    1         0.5117915183E+01      0.1275821961E+02
          0                 2           2             4    7     1      -0.2111978014E+00       5    8    1        -0.1144500459E+02      0.2793688266E+02
          0                 3           2             4    7     1       0.1438156479E-01       5    8    1         0.8011263825E+00      0.1955804438E+01
          0                 4           2             4    7     1      -0.5722569774E-03       5    8    1        -0.3276483962E-01      0.8001157782E-01
          0                 5           1             4    7     1       0.7056174973E-05       5    6    1         0.4152011174E-03      0.1017664188E-02

    ------------------------------------------------
       NWT REQUIRED            5 OUTER ITERATIONS 
       AND A TOTAL OF          9 INNER ITERATIONS.
    ------------------------------------------------

 NO OUTPUT CONTROL FOR STRESS PERIOD   21   TIME STEP   19
 
 SOLVING FOR HEAD 
                                                   Max.-Head-Change                         Max.-Flux-Residual
  Residual-Control   Outer-Iter.   Inner-Iter.     Column Row Layer    Maximum-Head-Change  Column Row Layer    Maximum-Flux-Residual          L2-NORM 
          0                 1           2             5    8     1       0.9638616256E-01       5    8    1         0.5228731363E+01      0.1298412461E+02
          0                 2           2             5    6     1      -0.5823197274E-01       5    8    1        -0.3209328894E+01      0.7779827702E+01
          0                 3           2             5    6     1       0.3965374134E-02       5    8    1         0.2246526513E+00      0.5455212270E+00
          0                 4           2             5    6     1      -0.1577859804E-03       5    8    1        -0.9188308411E-02      0.2237885325E-01
          0                 5           1             5    6     1       0.1945566305E-05       5    8    1         0.1164441896E-03      0.2885980121E-03

    ------------------------------------------------
       NWT REQUIRED            5 OUTER ITERATIONS 
       AND A TOTAL OF          9 INNER ITERATIONS.
    ------------------------------------------------

 NO OUTPUT CONTROL FOR STRESS PERIOD   21   TIME STEP   20
 
 SOLVING FOR HEAD 
                                                   Max.-Head-Change                         Max.-Flux-Residual
  Residual-Control   Outer-Iter.   Inner-Iter.     Column Row Layer    Maximum-Head-Change  Column Row Layer    Maximum-Flux-Residual          L2-NORM 
          0                 1           2             5    8     1       0.9385991542E-01       5    8    1         0.5088596381E+01      0.1273346603E+02
          0                 2           2             4    7     1      -0.2113061763E+00       5    8    1        -0.1144210049E+02      0.2793801742E+02
          0                 3           2             4    7     1       0.1438894276E-01       5    8    1         0.8009214223E+00      0.1955877926E+01
          0                 4           2             4    7     1      -0.5725505635E-03       5    8    1        -0.3275629305E-01      0.8001408810E-01
          0                 5           1             4    7     1       0.7059795181E-05       5    6    1         0.4150843088E-03      0.1017640485E-02

    ------------------------------------------------
       NWT REQUIRED            5 OUTER ITERATIONS 
       AND A TOTAL OF          9 INNER ITERATIONS.
    ------------------------------------------------

 NO OUTPUT CONTROL FOR STRESS PERIOD   21   TIME STEP   21
 
 SOLVING FOR HEAD 
                                                   Max.-Head-Change                         Max.-Flux-Residual
  Residual-Control   Outer-Iter.   Inner-Iter.     Column Row Layer    Maximum-Head-Change  Column Row Layer    Maximum-Flux-Residual          L2-NORM 
          0                 1           2             5    8     1       0.9593709399E-01       5    8    1         0.5202507820E+01      0.1296238732E+02
          0                 2           2             5    7     1      -0.5820580734E-01       5    8    1        -0.3206698316E+01      0.7780654425E+01
          0                 3           2             5    7     1       0.3963588971E-02       5    8    1         0.2244685129E+00      0.5455688391E+00
          0                 4           2             5    7     1      -0.1577149635E-03       5    8    1        -0.9180777114E-02      0.2238367129E-01
          0                 5           1             5    7     1       0.1944695838E-05       5    8    1         0.1163487509E-03      0.2964815239E-03

    ------------------------------------------------
       NWT REQUIRED            5 OUTER ITERATIONS 
       AND A TOTAL OF          9 INNER ITERATIONS.
    ------------------------------------------------

 NO OUTPUT CONTROL FOR STRESS PERIOD   21   TIME STEP   22
 
 SOLVING FOR HEAD 
                                                   Max.-Head-Change                         Max.-Flux-Residual
  Residual-Control   Outer-Iter.   Inner-Iter.     Column Row Layer    Maximum-Head-Change  Column Row Layer    Maximum-Flux-Residual          L2-NORM 
          0                 1           2             5    8     1       0.9346207954E-01       5    8    1         0.5065249762E+01      0.1271671012E+02
          0                 2           2             4    7     1      -0.2114059620E+00       5    8    1        -0.1143975735E+02      0.2793947279E+02
          0                 3           2             4    7     1       0.1439573602E-01       5    8    1         0.8007551460E+00      0.1955973042E+01
          0                 4           2             4    7     1      -0.5728208823E-03       5    8    1        -0.3274927247E-01      0.8001739521E-01
          0                 5           1             4    7     1       0.7063127958E-05       5    6    1         0.4149809474E-03      0.1017667023E-02

    ------------------------------------------------
       NWT REQUIRED            5 OUTER ITERATIONS 
       AND A TOTAL OF          9 INNER ITERATIONS.
    ------------------------------------------------

 NO OUTPUT CONTROL FOR STRESS PERIOD   21   TIME STEP   23
 
 SOLVING FOR HEAD 
                                                   Max.-Head-Change                         Max.-Flux-Residual
  Residual-Control   Outer-Iter.   Inner-Iter.     Column Row Layer    Maximum-Head-Change  Column Row Layer    Maximum-Flux-Residual          L2-NORM 
          0                 1           2             5    8     1       0.9558637546E-01       5    8    1         0.5181805603E+01      0.1294812217E+02
          0                 2           2             5    7     1      -0.5822941351E-01       5    8    1        -0.3204631067E+01      0.7781937889E+01
          0                 3           2             5    7     1       0.3965196219E-02       5    8    1         0.2243238068E+00      0.5456476034E+00
          0                 4           2             5    7     1      -0.1577789184E-03       5    8    1        -0.9174858641E-02      0.2238600517E-01
          0                 5           1             5    7     1       0.1945484086E-05       5    8    1         0.1162737412E-03      0.2963649293E-03

    ------------------------------------------------
       NWT REQUIRED            5 OUTER ITERATIONS 
       AND A TOTAL OF          9 INNER ITERATIONS.
    ------------------------------------------------

 NO OUTPUT CONTROL FOR STRESS PERIOD   21   TIME STEP   24
 
 SOLVING FOR HEAD 
                                                   Max.-Head-Change                         Max.-Flux-Residual
  Residual-Control   Outer-Iter.   Inner-Iter.     Column Row Layer    Maximum-Head-Change  Column Row Layer    Maximum-Flux-Residual          L2-NORM 
          0                 1           2             5    8     1       0.9315537274E-01       5    8    1         0.5047018424E+01      0.1270679847E+02
          0                 2           2             4    7     1      -0.2114988688E+00       5    8    1        -0.1143793623E+02      0.2794130421E+02
          0                 3           2             4    7     1       0.1440206104E-01       5    8    1         0.8006251332E+00      0.1956094590E+01
          0                 4           2             4    7     1      -0.5730725683E-03       5    8    1        -0.3274370841E-01      0.8002183728E-01
          0                 5           1             4    7     1       0.7066231553E-05       5    6    1         0.4148970315E-03      0.1017636533E-02

    ------------------------------------------------
       NWT REQUIRED            5 OUTER ITERATIONS 
       AND A TOTAL OF          9 INNER ITERATIONS.
    ------------------------------------------------

 NO OUTPUT CONTROL FOR STRESS PERIOD   21   TIME STEP   25
 
 SOLVING FOR HEAD 
                                                   Max.-Head-Change                         Max.-Flux-Residual
  Residual-Control   Outer-Iter.   Inner-Iter.     Column Row Layer    Maximum-Head-Change  Column Row Layer    Maximum-Flux-Residual          L2-NORM 
          0                 1           2             5    8     1       0.9531998254E-01       5    8    1         0.5165836410E+01      0.1294025711E+02
          0                 2           2             5    7     1      -0.5825346418E-01       5    8    1        -0.3203033777E+01      0.7783579423E+01
          0                 3           2             5    7     1       0.3966833760E-02       5    8    1         0.2242119971E+00      0.5457515541E+00
          0                 4           2             5    7     1      -0.1578440788E-03       5    8    1        -0.9170285594E-02      0.2238942676E-01
          0                 5           1             5    7     1       0.1946287457E-05       5    8    1         0.1162157728E-03      0.2964021419E-03

    ------------------------------------------------
       NWT REQUIRED            5 OUTER ITERATIONS 
       AND A TOTAL OF          9 INNER ITERATIONS.
    ------------------------------------------------

 NO OUTPUT CONTROL FOR STRESS PERIOD   21   TIME STEP   26
 
 SOLVING FOR HEAD 
                                                   Max.-Head-Change                         Max.-Flux-Residual
  Residual-Control   Outer-Iter.   Inner-Iter.     Column Row Layer    Maximum-Head-Change  Column Row Layer    Maximum-Flux-Residual          L2-NORM 
          0                 1           2             5    8     1       0.9292685784E-01       5    8    1         0.5033174750E+01      0.1270275773E+02
          0                 2           2             4    7     1      -0.2115854013E+00       5    8    1        -0.1143655196E+02      0.2794343159E+02
          0                 3           2             4    7     1       0.1440795214E-01       5    8    1         0.8005259376E+00      0.1956237308E+01
          0                 4           2             4    7     1      -0.5733069873E-03       5    8    1        -0.3273942812E-01      0.8002721785E-01
          0                 5           1             4    7     1       0.7069121984E-05       5    6    1         0.4148295220E-03      0.1017690921E-02

    ------------------------------------------------
       NWT REQUIRED            5 OUTER ITERATIONS 
       AND A TOTAL OF          9 INNER ITERATIONS.
    ------------------------------------------------

 NO OUTPUT CONTROL FOR STRESS PERIOD   21   TIME STEP   27
 
 SOLVING FOR HEAD 
                                                   Max.-Head-Change                         Max.-Flux-Residual
  Residual-Control   Outer-Iter.   Inner-Iter.     Column Row Layer    Maximum-Head-Change  Column Row Layer    Maximum-Flux-Residual          L2-NORM 
          0                 1           2             5    8     1       0.9512598429E-01       5    8    1         0.5153929089E+01      0.1293789541E+02
          0                 2           2             5    7     1      -0.5827808694E-01       5    8    1        -0.3201843145E+01      0.7785537255E+01
          0                 3           2             5    7     1       0.3968510281E-02       5    8    1         0.2241286529E+00      0.5458779771E+00
          0                 4           2             5    7     1      -0.1579107901E-03       5    8    1        -0.9166876828E-02      0.2239372341E-01
          0                 5           1             5    7     1       0.1947110094E-05       5    8    1         0.1161725727E-03      0.2961463580E-03

    ------------------------------------------------
       NWT REQUIRED            5 OUTER ITERATIONS 
       AND A TOTAL OF          9 INNER ITERATIONS.
    ------------------------------------------------

 NO OUTPUT CONTROL FOR STRESS PERIOD   21   TIME STEP   28
 
 SOLVING FOR HEAD 
                                                   Max.-Head-Change                         Max.-Flux-Residual
  Residual-Control   Outer-Iter.   Inner-Iter.     Column Row Layer    Maximum-Head-Change  Column Row Layer    Maximum-Flux-Residual          L2-NORM 
          0                 1           2             5    8     1       0.9276523316E-01       5    8    1         0.5023084699E+01      0.1270373693E+02
          0                 2           2             4    7     1      -0.2116662736E+00       5    8    1        -0.1143554305E+02      0.2794581390E+02
          0                 3           2             4    7     1       0.1441345794E-01       5    8    1         0.8004532221E+00      0.1956398298E+01
          0                 4           2             4    7     1      -0.5735260749E-03       5    8    1        -0.3273625097E-01      0.8003326727E-01
          0                 5           1             4    7     1       0.7071823670E-05       5    6    1         0.4147762738E-03      0.1017656914E-02

    ------------------------------------------------
       NWT REQUIRED            5 OUTER ITERATIONS 
       AND A TOTAL OF          9 INNER ITERATIONS.
    ------------------------------------------------

 NO OUTPUT CONTROL FOR STRESS PERIOD   21   TIME STEP   29
 
 SOLVING FOR HEAD 
                                                   Max.-Head-Change                         Max.-Flux-Residual
  Residual-Control   Outer-Iter.   Inner-Iter.     Column Row Layer    Maximum-Head-Change  Column Row Layer    Maximum-Flux-Residual          L2-NORM 
          0                 1           2             5    8     1       0.9499406802E-01       5    8    1         0.5145505521E+01      0.1294024288E+02
          0                 2           2             5    7     1      -0.5830321508E-01       5    8    1        -0.3201000882E+01      0.7787761137E+01
          0                 3           2             5    7     1       0.3970221233E-02       5    8    1         0.2240696942E+00      0.5460231769E+00
          0                 4           2             5    7     1      -0.1579788713E-03       5    8    1        -0.9164465422E-02      0.2239892587E-01
          0                 5           1             5    7     1       0.1947949533E-05       5    8    1         0.1161420232E-03      0.2959988570E-03

    ------------------------------------------------
       NWT REQUIRED            5 OUTER ITERATIONS 
       AND A TOTAL OF          9 INNER ITERATIONS.
    ------------------------------------------------

 NO OUTPUT CONTROL FOR STRESS PERIOD   21   TIME STEP   30



 STREAM LISTING     PERIOD     21   STEP       30

 LAYER ROW COL. STREAM  RCH.  FLOW INTO     FLOW TO   FLOW OUT OF   OVRLND.     DIRECT     STREAM       STREAM     STREAM     STREAM   STREAMBED  STREAMBED
                SEG.NO.  NO.  STRM. RCH.    AQUIFER    STRM. RCH.    RUNOFF     PRECIP       ET          HEAD       DEPTH      WIDTH   CONDCTNC.   GRADIENT

   1    1    1     1     1    1.3875E+01  1.7894E-01   1.3696E+01  0.000E+00  0.000E+00  0.000E+00  1.09404E+03  9.877E-01  9.972E+00  4.487E-02  1.329E+00
   1    2    2     1     2    1.3696E+01  2.7574E-01   1.3421E+01  0.000E+00  0.000E+00  0.000E+00  1.08904E+03  9.829E-01  9.890E+00  6.923E-02  1.328E+00
   1    3    3     1     3    1.3421E+01  2.3381E-01   1.3187E+01  0.000E+00  0.000E+00  0.000E+00  1.08340E+03  9.775E-01  9.797E+00  5.878E-02  1.326E+00
   1    3    4     1     4    1.3187E+01  2.1419E-01   1.2973E+01  0.000E+00  0.000E+00  0.000E+00  1.07838E+03  9.727E-01  9.715E+00  5.392E-02  1.324E+00
   1    4    5     2     1    1.0973E+01  2.9101E-01   1.0682E+01  0.000E+00  0.000E+00  0.000E+00  1.07266E+03  7.309E-01  1.200E+01  7.800E-02  1.244E+00
   1    5    6     2     2    1.0682E+01  2.2323E-01   1.0458E+01  0.000E+00  0.000E+00  0.000E+00  1.06723E+03  7.204E-01  1.200E+01  6.000E-02  1.240E+00
   1    6    6     2     3    1.0458E+01  2.2268E-01   1.0236E+01  0.000E+00  0.000E+00  0.000E+00  1.06250E+03  7.113E-01  1.200E+01  6.000E-02  1.237E+00
   1    7    6     2     4    1.0236E+01  2.2212E-01   1.0013E+01  0.000E+00  0.000E+00  0.000E+00  1.05778E+03  7.021E-01  1.200E+01  6.000E-02  1.234E+00
   1    8    6     2     5    1.0013E+01  2.2157E-01   9.7919E+00  0.000E+00  0.000E+00  0.000E+00  1.05305E+03  6.928E-01  1.200E+01  6.000E-02  1.231E+00
   1    3    5     3     1    2.0000E+00  2.8252E-01   1.7175E+00  0.000E+00  0.000E+00  0.000E+00  1.07555E+03  1.909E+00  9.636E+00  7.227E-02  1.955E+00
   1    3    6     3     2    1.7175E+00  2.4905E-01   1.4684E+00  0.000E+00  0.000E+00  0.000E+00  1.07264E+03  1.727E+00  8.909E+00  6.682E-02  1.864E+00
   1    3    7     3     3    1.4684E+00  1.9718E-01   1.2712E+00  0.000E+00  0.000E+00  0.000E+00  1.06987E+03  1.555E+00  8.218E+00  5.547E-02  1.777E+00
   1    4    8     3     4    1.2712E+00  2.2567E-01   1.0456E+00  0.000E+00  0.000E+00  0.000E+00  1.06682E+03  1.364E+00  7.455E+00  6.709E-02  1.682E+00
   1    5    8     3     5    1.0456E+00  1.5790E-01   8.8768E-01  0.000E+00  0.000E+00  0.000E+00  1.06362E+03  1.164E+00  6.655E+00  4.991E-02  1.582E+00
   1    6    8     3     6    8.8768E-01  5.5980E-02   8.3170E-01  0.000E+00  0.000E+00  0.000E+00  1.06158E+03  1.036E+00  6.145E+00  1.844E-02  1.518E+00
   1    5   10     4     1    1.0000E+01  9.0919E-02   9.9091E+00  0.000E+00  0.000E+00  0.000E+00  1.07836E+03  6.368E-01  1.000E+01  2.500E-02  1.212E+00
   1    5    9     4     2    9.9091E+00  1.8158E-01   9.7275E+00  0.000E+00  0.000E+00  0.000E+00  1.07154E+03  6.315E-01  1.000E+01  5.000E-02  1.211E+00
   1    6    8     4     3    9.7275E+00  1.2689E-01   9.6006E+00  0.000E+00  0.000E+00  0.000E+00  1.06381E+03  6.256E-01  1.000E+01  3.500E-02  1.209E+00
   1    6    8     5     1    1.0432E+01  2.2686E-01   1.0205E+01  0.000E+00  0.000E+00  0.000E+00  1.05868E+03  6.790E-01  1.542E+01  6.166E-02  1.226E+00
   1    7    7     5     2    1.0205E+01  2.7894E-01   9.9265E+00  0.000E+00  0.000E+00  0.000E+00  1.05417E+03  6.732E-01  1.519E+01  7.594E-02  1.224E+00
   1    8    7     5     3    9.9265E+00  1.9221E-01   9.7343E+00  0.000E+00  0.000E+00  0.000E+00  1.04992E+03  6.676E-01  1.497E+01  5.241E-02  1.223E+00
   1    8    6     5     4    9.7343E+00  1.3577E-01   9.5985E+00  0.000E+00  0.000E+00  0.000E+00  1.04691E+03  6.637E-01  1.482E+01  3.706E-02  1.221E+00
   1    9    6     6     1    9.5985E+00  2.2097E-01   9.3776E+00  0.000E+00  0.000E+00  0.000E+00  1.04341E+03  6.828E-01  1.200E+01  6.000E-02  1.228E+00
   1   10    7     6     2    9.3776E+00  2.2039E-01   9.1572E+00  0.000E+00  0.000E+00  0.000E+00  1.03885E+03  6.732E-01  1.200E+01  6.000E-02  1.224E+00
   1   11    7     6     3    9.1572E+00  2.1981E-01   8.9374E+00  0.000E+00  0.000E+00  0.000E+00  1.03430E+03  6.636E-01  1.200E+01  6.000E-02  1.221E+00
   1   12    7     6     4    8.9374E+00  2.1923E-01   8.7181E+00  0.000E+00  0.000E+00  0.000E+00  1.02974E+03  6.539E-01  1.200E+01  6.000E-02  1.218E+00
   1   13    7     6     5    8.7181E+00 -3.8886E-02   8.7570E+00  0.000E+00  0.000E+00  0.000E+00  1.02656E+03  6.498E-01  1.200E+01  2.400E-01 -5.401E-02
   1   14    9     7     1    1.5000E+02  1.3737E+00   1.4863E+02  0.000E+00  0.000E+00  0.000E+00  1.03987E+03  2.288E+00  5.529E+01  5.593E-01  8.187E-01
   1   13    8     7     2    1.4863E+02  1.9467E+00   1.4668E+02  0.000E+00  0.000E+00  0.000E+00  1.03478E+03  2.279E+00  5.525E+01  6.147E-01  1.056E+00
   1   13    7     7     3    1.4668E+02  1.6570E+00   1.4502E+02  0.000E+00  0.000E+00  0.000E+00  1.02969E+03  2.269E+00  5.521E+01  5.584E-01  9.892E-01
   1   13    6     8     1    1.5378E+02  1.0105E+00   1.5277E+02  0.000E+00  0.000E+00  0.000E+00  1.02471E+03  2.840E+00  4.118E+01  4.196E-01  8.028E-01
   1   13    5     8     2    1.5277E+02  2.7150E-01   1.5250E+02  0.000E+00  0.000E+00  0.000E+00  1.01846E+03  2.835E+00  4.111E+01  4.189E-01  2.160E-01
   1   13    4     8     3    1.5250E+02 -2.0869E+00   1.5458E+02  0.000E+00  0.000E+00  0.000E+00  1.01222E+03  2.842E+00  4.120E+01  4.199E+00 -1.657E-01
   1   13    3     8     4    1.5458E+02 -3.4675E+00   1.5805E+02  0.000E+00  0.000E+00  0.000E+00  1.00599E+03  2.861E+00  4.148E+01  4.227E+00 -2.734E-01
   1   13    2     8     5    1.5805E+02 -2.5359E+00   1.6059E+02  0.000E+00  0.000E+00  0.000E+00  9.99756E+02  2.881E+00  4.178E+01  4.257E+00 -1.986E-01
   1   13    1     8     6    1.6059E+02 -1.9702E+00   1.6256E+02  0.000E+00  0.000E+00  0.000E+00  9.94771E+02  2.896E+00  4.200E+01  2.568E+00 -2.558E-01
   1    8    6     9     1    9.7919E+00  0.0000E+00   9.7919E+00  0.000E+00  0.000E+00  0.000E+00  1.08099E+03  2.238E+00  4.000E+00  0.000E+00  1.746E+00
   1    8    5     9     2    9.7919E+00  0.0000E+00   9.7919E+00  0.000E+00  0.000E+00  0.000E+00  1.08049E+03  2.238E+00  4.000E+00  0.000E+00  1.746E+00





UNSATURATED ZONE PACKAGE VOLUMETRIC BUDGET FOR  TIME STEP    30 STRESS PERIOD   21
  ------------------------------------------------------------------------------



     CUMULATIVE VOLUMES      L**3       RATES FOR THIS TIME STEP      L**3/T
     ------------------                 ------------------------

           IN:                                      IN:
           ---                                      ---
        INFILTRATION =  1169622362.2986          INFILTRATION =          30.3184

          OUT:                                     OUT:
          ----                                     ----
              UZF ET =   944666148.4331                UZF ET =          52.9209
        UZF RECHARGE =      167968.6155          UZF RECHARGE =       0.0000E+00

            IN - OUT =   224788245.2500              IN - OUT =         -22.6025

          STORAGE:                                 STORAGE:
          --------                                 --------
      STORAGE CHANGE =   224788230.5327        STORAGE CHANGE =         -22.6025

 PERCENT DISCREPANCY IS DIFFERENCE BETWEEN IN-OUT MINUS CHANGE IN STORAGE
 DIVIDED BY THE AVERAGE OF IN AND OUT TIMES 100

 PERCENT DISCREPANCY =           0.00     PERCENT DISCREPANCY =           0.00






1
  VOLUMETRIC BUDGET FOR AGRICULTURAL FIELDS AT  END OF TIME STEP   30, STRESS PERIOD  21
  ------------------------------------------------------------------------------

     CUMULATIVE VOLUMES      L**3       RATES FOR THIS TIME STEP      L**3/T
     ------------------                 ------------------------

           IN:                                      IN:
           ---                                      ---
               AG WELLS  =   580532608.0000                 AG WELLS  =          16.1188
      DIVERSION SEGMENTS =   357316096.0000        DIVERSION SEGMENTS =           9.7919
           GW IRRIGATION =           0.0000             GW IRRIGATION =           0.0000
           SW IRRIGATION =           0.0000             SW IRRIGATION =           0.0000
        SYSTEM LOSSES GW =           0.0000          SYSTEM LOSSES GW =           0.0000
        SYSTEM LOSSES SW =           0.0000          SYSTEM LOSSES SW =           0.0000

                TOTAL IN =   937848704.0000                  TOTAL IN =          25.9107

          OUT:                                     OUT:
          ----                                     ----
               AG WELLS  =           0.0000                 AG WELLS  =           0.0000
      DIVERSION SEGMENTS =           0.0000        DIVERSION SEGMENTS =           0.0000
           GW IRRIGATION =   580532608.0000             GW IRRIGATION =          16.1188
           SW IRRIGATION =   357322944.0000             SW IRRIGATION =           9.7921
        SYSTEM LOSSES GW =           0.0000          SYSTEM LOSSES GW =           0.0000
        SYSTEM LOSSES SW =           0.0000          SYSTEM LOSSES SW =           0.0000

               TOTAL OUT =   937855552.0000                 TOTAL OUT =          25.9109

                IN - OUT =       -6848.0000                  IN - OUT =      -1.9646E-04

     PERCENT DISCREPANCY =          -0.00         PERCENT DISCREPANCY =          -0.00



1
  VOLUMETRIC BUDGET FOR ENTIRE MODEL AT END OF TIME STEP   30, STRESS PERIOD  21
  ------------------------------------------------------------------------------

     CUMULATIVE VOLUMES      L**3       RATES FOR THIS TIME STEP      L**3/T
     ------------------                 ------------------------

           IN:                                      IN:
           ---                                      ---
             STORAGE     =   747944960.0000               STORAGE     =          27.0137
       CONSTANT HEAD     =           0.0000         CONSTANT HEAD     =           0.0000
     HEAD DEP BOUNDS     =    15175393.0000       HEAD DEP BOUNDS     =           0.2883
      STREAM LEAKAGE     =   620878528.0000        STREAM LEAKAGE     =          11.6247
        UZF RECHARGE     =      167968.5625          UZF RECHARGE     =           0.0000
               GW ET     =           0.0000                 GW ET     =           0.0000
     SURFACE LEAKAGE     =           0.0000       SURFACE LEAKAGE     =           0.0000
           AG WELLS      =           0.0000             AG WELLS      =           0.0000

                TOTAL IN =  1384166912.0000                  TOTAL IN =          38.9267

          OUT:                                     OUT:
          ----                                     ----
             STORAGE     =   248906112.0000               STORAGE     =          12.4221
       CONSTANT HEAD     =           0.0000         CONSTANT HEAD     =           0.0000
     HEAD DEP BOUNDS     =    15176201.0000       HEAD DEP BOUNDS     =           0.2865
      STREAM LEAKAGE     =   539558016.0000        STREAM LEAKAGE     =          10.0994
        UZF RECHARGE     =           0.0000          UZF RECHARGE     =           0.0000
               GW ET     =           0.0000                 GW ET     =           0.0000
     SURFACE LEAKAGE     =           0.0000       SURFACE LEAKAGE     =           0.0000
           AG WELLS      =   580532608.0000             AG WELLS      =          16.1188

               TOTAL OUT =  1384172928.0000                 TOTAL OUT =          38.9267

                IN - OUT =       -6016.0000                  IN - OUT =       1.1444E-05

     PERCENT DISCREPANCY =          -0.00         PERCENT DISCREPANCY =           0.00






         TIME SUMMARY AT END OF TIME STEP   30 IN STRESS PERIOD   21
                    SECONDS     MINUTES      HOURS       DAYS        YEARS
                    -----------------------------------------------------------
   TIME STEP LENGTH  87667.      1461.1      24.352      1.0147     2.77799E-03
 STRESS PERIOD TIME 2.63000E+06  43833.      730.56      30.440     8.33397E-02
         TOTAL TIME 5.26866E+07 8.78110E+05  14635.      609.80      1.6695    
1
1
                            STRESS PERIOD NO.   22, LENGTH =   2630000.    
                            -----------------------------------------------

                              NUMBER OF TIME STEPS =    30

                               MULTIPLIER FOR DELT =     1.000

                            INITIAL TIME STEP SIZE =   87666.66    

 REUSING NON-PARAMETER GHB CELLS FROM LAST STRESS PERIOD

      2 GHB CELLS

 REUSING STREAM SEGMENT DATA FROM LAST STRESS PERIOD



            AREAL INFILTRATION RATE
 READING ON UNIT   19 WITH FORMAT: (10F4.0)            

            1           2           3           4           5           6           7           8           9          10
 ........................................................................................................................
   1   1.2000E-09   0.000       0.000       0.000       0.000       0.000       0.000       0.000       0.000       0.000    
   2   2.1000E-09  2.0000E-09  8.0000E-10  8.5000E-09   0.000       0.000       0.000       0.000       0.000       0.000    
   3   5.0000E-10  1.1000E-09  8.8000E-09  5.5000E-09   0.000       0.000       0.000       0.000       0.000       0.000    
   4   8.5000E-09  1.1000E-09  1.1000E-09  1.1000E-09  2.0000E-09   0.000       0.000       0.000       0.000       0.000    
   5   8.5000E-09  1.1000E-09  1.1000E-09  1.1000E-09  1.1000E-09   0.000       0.000       0.000       0.000       0.000    
   6   8.5000E-09  5.2000E-09  2.1000E-09  1.1000E-09  1.5000E-09   0.000       0.000       0.000       0.000       0.000    
   7   8.5000E-09  5.2000E-09  2.1000E-09  1.2000E-09  2.0000E-09   0.000       0.000       0.000       0.000       0.000    
   8   5.0000E-10  5.2000E-09  2.1000E-09  1.2000E-09  5.0000E-09   0.000       0.000       0.000       0.000       0.000    
   9   5.0000E-10  5.2000E-09  2.1000E-09  1.2000E-09  5.0000E-09   0.000       0.000       0.000       0.000       0.000    
  10   5.0000E-10  5.2000E-09  2.1000E-09  1.2000E-09  5.8000E-09   0.000       0.000       0.000       0.000       0.000    
  11   1.0000E-10  1.1000E-09  1.1000E-09  1.2000E-09  5.0000E-09   0.000       0.000       0.000       0.000       0.000    
  12   1.1000E-09  1.1000E-09  1.1000E-09  1.1000E-09  2.0000E-09   0.000       0.000       0.000       0.000       0.000    
  13   1.1000E-09  2.2000E-09  2.2000E-09  2.1000E-09  1.0000E-09   0.000       0.000       0.000       0.000       0.000    
  14   2.0000E-10  5.5000E-09  5.5000E-09  5.2000E-09  1.0000E-09   0.000       0.000       0.000       0.000       0.000    
  15    0.000      8.8000E-09  8.8000E-09   0.000       0.000       0.000       0.000       0.000       0.000       0.000    

                  ET RATE =  7.500000E-08

 USING ET EXTINCTION DEPTH FROM PREVIOUS STRESS PERIOD. CURRENT PERIOD IS:      22

 USING EXTINCTION WATER CONTENT FROM PREVIOUS STRESS PERIOD. CURRENT PERIOD IS:      22

 USING AIR ENTRY PRESSURE FROM PREVIOUS STRESS PERIOD. CURRENT PERIOD IS:      22

 USING ROOT PRESSURE HEAD FROM PREVIOUS STRESS PERIOD. CURRENT PERIOD IS:      22

 USING ROOT ACTIVITY FROM PREVIOUS STRESS PERIOD. CURRENT PERIOD IS:      22

 PROCESSING AG STRESS PERIOD DATA

 READING AG STRESS PERIOD DATA

 READING IRRIGATION SEGMENT

 READING IRRIGATION WELL

 READING SUPPLEMENTAL WELL

 END PROCESSING AG STRESS PERIOD DATA OPTIONS
 
 SOLVING FOR HEAD 
                                                   Max.-Head-Change                         Max.-Flux-Residual
  Residual-Control   Outer-Iter.   Inner-Iter.     Column Row Layer    Maximum-Head-Change  Column Row Layer    Maximum-Flux-Residual          L2-NORM 
          0                 1           2             5    8     1       0.9265845066E-01       5    8    1         0.5016221335E+01      0.1271252076E+02
          0                 2           2             5    8     1      -0.9605408689E-02       5    8    1        -0.5342296043E+00      0.1344750330E+01
          0                 3           2             5    6     1       0.1231260098E-02       5    8    1         0.7001182168E-01      0.1707141434E+00
          0                 4           1             5    6     1      -0.4899289825E-04       5    8    1        -0.2863487121E-02      0.6989452048E-02

    ------------------------------------------------
       NWT REQUIRED            4 OUTER ITERATIONS 
       AND A TOTAL OF          7 INNER ITERATIONS.
    ------------------------------------------------

 NO OUTPUT CONTROL FOR STRESS PERIOD   22   TIME STEP    1
 
 SOLVING FOR HEAD 
                                                   Max.-Head-Change                         Max.-Flux-Residual
  Residual-Control   Outer-Iter.   Inner-Iter.     Column Row Layer    Maximum-Head-Change  Column Row Layer    Maximum-Flux-Residual          L2-NORM 
          0                 1           2             5    6     1       0.8918349367E-01       5    8    1         0.4815017597E+01      0.1234578173E+02
          0                 2           2             4    7     1      -0.5878614495E-01       5    8    1        -0.3208157704E+01      0.7828331658E+01
          0                 3           2             4    7     1       0.4003104285E-02       5    8    1         0.2245706632E+00      0.5491041039E+00
          0                 4           2             4    7     1      -0.1592873313E-03       5    8    1        -0.9184955120E-02      0.2254456114E-01
          0                 5           1             4    7     1       0.1964081685E-05       5    8    1         0.1164016899E-03      0.3010049918E-03

    ------------------------------------------------
       NWT REQUIRED            5 OUTER ITERATIONS 
       AND A TOTAL OF          9 INNER ITERATIONS.
    ------------------------------------------------

 NO OUTPUT CONTROL FOR STRESS PERIOD   22   TIME STEP    2
 
 SOLVING FOR HEAD 
                                                   Max.-Head-Change                         Max.-Flux-Residual
  Residual-Control   Outer-Iter.   Inner-Iter.     Column Row Layer    Maximum-Head-Change  Column Row Layer    Maximum-Flux-Residual          L2-NORM 
          0                 1           2             5    6     1       0.8730881353E-01       5    6    1         0.4711354243E+01      0.1214605119E+02
          0                 2           2             5    6     1      -0.8599720892E-02       5    6    1        -0.4770129708E+00      0.1227919086E+01
          0                 3           2             5    6     1       0.5549870902E-03       5    6    1         0.3166062954E-01      0.8207181183E-01
          0                 4           1             5    6     1      -0.3016640573E-04       5    6    1        -0.1764384637E-02      0.4782222227E-02

    ------------------------------------------------
       NWT REQUIRED            4 OUTER ITERATIONS 
       AND A TOTAL OF          7 INNER ITERATIONS.
    ------------------------------------------------

 NO OUTPUT CONTROL FOR STRESS PERIOD   22   TIME STEP    3
 
 SOLVING FOR HEAD 
                                                   Max.-Head-Change                         Max.-Flux-Residual
  Residual-Control   Outer-Iter.   Inner-Iter.     Column Row Layer    Maximum-Head-Change  Column Row Layer    Maximum-Flux-Residual          L2-NORM 
          0                 1           2             5    7     1       0.8453711729E-01       5    6    1         0.4537741917E+01      0.1180860641E+02
          0                 2           2             4    7     1      -0.5873616410E-01       5    6    1        -0.3180430765E+01      0.7782945529E+01
          0                 3           2             4    7     1       0.3999699410E-02       5    6    1         0.2226297569E+00      0.5459326084E+00
          0                 4           2             4    7     1      -0.1591518549E-03       5    6    1        -0.9105572035E-02      0.2241518780E-01
          0                 5           1             4    7     1       0.1962410984E-05       5    6    1         0.1153956568E-03      0.2991845850E-03

    ------------------------------------------------
       NWT REQUIRED            5 OUTER ITERATIONS 
       AND A TOTAL OF          9 INNER ITERATIONS.
    ------------------------------------------------

 NO OUTPUT CONTROL FOR STRESS PERIOD   22   TIME STEP    4
 
 SOLVING FOR HEAD 
                                                   Max.-Head-Change                         Max.-Flux-Residual
  Residual-Control   Outer-Iter.   Inner-Iter.     Column Row Layer    Maximum-Head-Change  Column Row Layer    Maximum-Flux-Residual          L2-NORM 
          0                 1           2             5    7     1       0.8361101098E-01       5    6    1         0.4449900962E+01      0.1163415765E+02
          0                 2           2             5    7     1      -0.8262124145E-02       5    6    1        -0.4519826768E+00      0.1179327354E+01
          0                 3           2             5    7     1       0.5912539235E-03       5    6    1         0.3323472350E-01      0.8617935272E-01
          0                 4           1             5    7     1      -0.5901277670E-04       5    6    1        -0.3392215049E-02      0.8452476618E-02

    ------------------------------------------------
       NWT REQUIRED            4 OUTER ITERATIONS 
       AND A TOTAL OF          7 INNER ITERATIONS.
    ------------------------------------------------

 NO OUTPUT CONTROL FOR STRESS PERIOD   22   TIME STEP    5
 
 SOLVING FOR HEAD 
                                                   Max.-Head-Change                         Max.-Flux-Residual
  Residual-Control   Outer-Iter.   Inner-Iter.     Column Row Layer    Maximum-Head-Change  Column Row Layer    Maximum-Flux-Residual          L2-NORM 
          0                 1           2             5    7     1       0.8195060148E-01       5    7    1         0.4345401177E+01      0.1132263539E+02
          0                 2           2             4    7     1      -0.5866984442E-01       5    7    1        -0.3161201587E+01      0.7741234963E+01
          0                 3           2             4    7     1       0.3995182119E-02       5    7    1         0.2212832534E+00      0.5430174635E+00
          0                 4           2             4    7     1      -0.1589721136E-03       5    7    1        -0.9050502090E-02      0.2229640760E-01
          0                 5           1             4    7     1       0.1960195219E-05       5    7    1         0.1146977484E-03      0.2979826246E-03

    ------------------------------------------------
       NWT REQUIRED            5 OUTER ITERATIONS 
       AND A TOTAL OF          9 INNER ITERATIONS.
    ------------------------------------------------

 NO OUTPUT CONTROL FOR STRESS PERIOD   22   TIME STEP    6
 
 SOLVING FOR HEAD 
                                                   Max.-Head-Change                         Max.-Flux-Residual
  Residual-Control   Outer-Iter.   Inner-Iter.     Column Row Layer    Maximum-Head-Change  Column Row Layer    Maximum-Flux-Residual          L2-NORM 
          0                 1           2             5    7     1       0.8107546114E-01       5    7    1         0.4298772164E+01      0.1116993794E+02
          0                 2           2             5    7     1      -0.8022113264E-02       5    7    1        -0.4372333217E+00      0.1133793359E+01
          0                 3           2             5    7     1       0.5706028941E-03       5    7    1         0.3196217236E-01      0.8246024855E-01
          0                 4           1             4    7     1      -0.6542255628E-04       5    7    1        -0.3736735267E-02      0.9282525556E-02

    ------------------------------------------------
       NWT REQUIRED            4 OUTER ITERATIONS 
       AND A TOTAL OF          7 INNER ITERATIONS.
    ------------------------------------------------

 NO OUTPUT CONTROL FOR STRESS PERIOD   22   TIME STEP    7
 
 SOLVING FOR HEAD 
                                                   Max.-Head-Change                         Max.-Flux-Residual
  Residual-Control   Outer-Iter.   Inner-Iter.     Column Row Layer    Maximum-Head-Change  Column Row Layer    Maximum-Flux-Residual          L2-NORM 
          0                 1           2             4    7     1       0.7997868098E-01       5    7    1         0.4213644136E+01      0.1088113211E+02
          0                 2           2             4    7     1      -0.5858982093E-01       5    7    1        -0.3148026720E+01      0.7702798744E+01
          0                 3           2             4    7     1       0.3989731825E-02       5    7    1         0.2203609727E+00      0.5403306714E+00
          0                 4           2             4    7     1      -0.1587552456E-03       5    7    1        -0.9012780944E-02      0.2218687212E-01
          0                 5           1             4    7     1       0.1957520752E-05       5    7    1         0.1142197129E-03      0.2966733446E-03

    ------------------------------------------------
       NWT REQUIRED            5 OUTER ITERATIONS 
       AND A TOTAL OF          9 INNER ITERATIONS.
    ------------------------------------------------

 NO OUTPUT CONTROL FOR STRESS PERIOD   22   TIME STEP    8
 
 SOLVING FOR HEAD 
                                                   Max.-Head-Change                         Max.-Flux-Residual
  Residual-Control   Outer-Iter.   Inner-Iter.     Column Row Layer    Maximum-Head-Change  Column Row Layer    Maximum-Flux-Residual          L2-NORM 
          0                 1           2             4    7     1       0.7964989994E-01       5    7    1         0.4169720835E+01      0.1074724320E+02
          0                 2           2             4    7     1      -0.7878414821E-02       5    7    1        -0.4239818915E+00      0.1090794606E+01
          0                 3           2             4    7     1       0.5940020646E-03       5    7    1         0.3285131355E-01      0.8364350250E-01
          0                 4           1             4    7     1      -0.4477530706E-04       5    7    1        -0.2542261357E-02      0.6325386155E-02

    ------------------------------------------------
       NWT REQUIRED            4 OUTER ITERATIONS 
       AND A TOTAL OF          7 INNER ITERATIONS.
    ------------------------------------------------

 NO OUTPUT CONTROL FOR STRESS PERIOD   22   TIME STEP    9
 
 SOLVING FOR HEAD 
                                                   Max.-Head-Change                         Max.-Flux-Residual
  Residual-Control   Outer-Iter.   Inner-Iter.     Column Row Layer    Maximum-Head-Change  Column Row Layer    Maximum-Flux-Residual          L2-NORM 
          0                 1           2             4    7     1       0.7903937690E-01       4    7    1         0.4138400435E+01      0.1047813423E+02
          0                 2           2             4    7     1      -0.5849396100E-01       4    7    1        -0.3140264182E+01      0.7666676974E+01
          0                 3           2             4    7     1       0.3983203287E-02       4    7    1         0.2198173922E+00      0.5378051542E+00
          0                 4           2             4    7     1      -0.1584954732E-03       4    7    1        -0.8990549413E-02      0.2208379235E-01
          0                 5           1             4    7     1       0.1954317800E-05       4    7    1         0.1139379697E-03      0.2954184086E-03

    ------------------------------------------------
       NWT REQUIRED            5 OUTER ITERATIONS 
       AND A TOTAL OF          9 INNER ITERATIONS.
    ------------------------------------------------

 NO OUTPUT CONTROL FOR STRESS PERIOD   22   TIME STEP   10
 
 SOLVING FOR HEAD 
                                                   Max.-Head-Change                         Max.-Flux-Residual
  Residual-Control   Outer-Iter.   Inner-Iter.     Column Row Layer    Maximum-Head-Change  Column Row Layer    Maximum-Flux-Residual          L2-NORM 
          0                 1           2             4    7     1       0.7866078634E-01       4    7    1         0.4119362138E+01      0.1036058691E+02
          0                 2           2             4    7     1      -0.7773892747E-02       4    7    1        -0.4185019700E+00      0.1051157706E+01
          0                 3           2             4    7     1       0.5855316709E-03       4    7    1         0.3239307607E-01      0.8071544731E-01
          0                 4           1             4    7     1      -0.4133788059E-04       4    7    1        -0.2347723081E-02      0.5780350612E-02

    ------------------------------------------------
       NWT REQUIRED            4 OUTER ITERATIONS 
       AND A TOTAL OF          7 INNER ITERATIONS.
    ------------------------------------------------

 NO OUTPUT CONTROL FOR STRESS PERIOD   22   TIME STEP   11
 
 SOLVING FOR HEAD 
                                                   Max.-Head-Change                         Max.-Flux-Residual
  Residual-Control   Outer-Iter.   Inner-Iter.     Column Row Layer    Maximum-Head-Change  Column Row Layer    Maximum-Flux-Residual          L2-NORM 
          0                 1           2             4    7     1       0.7800529373E-01       4    7    1         0.4087004714E+01      0.1010897012E+02
          0                 2           2             4    7     1      -0.5823596207E-01       4    7    1        -0.3126679277E+01      0.7613102282E+01
          0                 3           2             4    7     1       0.3965633921E-02       4    7    1         0.2188664096E+00      0.5340601777E+00
          0                 4           2             4    7     1      -0.1577963743E-03       4    7    1        -0.8951654348E-02      0.2193099299E-01
          0                 5           1             4    7     1       0.1945697475E-05       4    7    1         0.1134450349E-03      0.2934802816E-03

    ------------------------------------------------
       NWT REQUIRED            5 OUTER ITERATIONS 
       AND A TOTAL OF          9 INNER ITERATIONS.
    ------------------------------------------------

 NO OUTPUT CONTROL FOR STRESS PERIOD   22   TIME STEP   12
 
 SOLVING FOR HEAD 
                                                   Max.-Head-Change                         Max.-Flux-Residual
  Residual-Control   Outer-Iter.   Inner-Iter.     Column Row Layer    Maximum-Head-Change  Column Row Layer    Maximum-Flux-Residual          L2-NORM 
          0                 1           2             4    7     1       0.7758564696E-01       4    7    1         0.4065589434E+01      0.1000526613E+02
          0                 2           2             4    7     1      -0.7675217714E-02       4    7    1        -0.4134417943E+00      0.1016392416E+01
          0                 3           2             4    7     1       0.5805083748E-03       4    7    1         0.3213242958E-01      0.7851804120E-01
          0                 4           1             4    7     1      -0.4324033057E-04       4    7    1        -0.2456269380E-02      0.5987087815E-02

    ------------------------------------------------
       NWT REQUIRED            4 OUTER ITERATIONS 
       AND A TOTAL OF          7 INNER ITERATIONS.
    ------------------------------------------------

 NO OUTPUT CONTROL FOR STRESS PERIOD   22   TIME STEP   13
 
 SOLVING FOR HEAD 
                                                   Max.-Head-Change                         Max.-Flux-Residual
  Residual-Control   Outer-Iter.   Inner-Iter.     Column Row Layer    Maximum-Head-Change  Column Row Layer    Maximum-Flux-Residual          L2-NORM 
          0                 1           2             4    7     1       0.7689461459E-01       4    7    1         0.4031154658E+01      0.9769183847E+01
          0                 2           2             4    7     1      -0.5797041936E-01       4    7    1        -0.3112644514E+01      0.7561831693E+01
          0                 3           2             4    7     1       0.3947550975E-02       4    7    1         0.2178839450E+00      0.5304758554E+00
          0                 4           2             4    7     1      -0.1570768395E-03       4    7    1        -0.8911471637E-02      0.2178469434E-01
          0                 5           1             4    7     1       0.1936825339E-05       4    7    1         0.1129358043E-03      0.2916648848E-03

    ------------------------------------------------
       NWT REQUIRED            5 OUTER ITERATIONS 
       AND A TOTAL OF          9 INNER ITERATIONS.
    ------------------------------------------------

 NO OUTPUT CONTROL FOR STRESS PERIOD   22   TIME STEP   14
 
 SOLVING FOR HEAD 
                                                   Max.-Head-Change                         Max.-Flux-Residual
  Residual-Control   Outer-Iter.   Inner-Iter.     Column Row Layer    Maximum-Head-Change  Column Row Layer    Maximum-Flux-Residual          L2-NORM 
          0                 1           2             4    7     1       0.7644263178E-01       4    7    1         0.4007845900E+01      0.9677599385E+01
          0                 2           2             4    7     1      -0.7611073249E-02       4    7    1        -0.4101918751E+00      0.9894671610E+00
          0                 3           2             4    7     1       0.5893590928E-03       4    7    1         0.3263413781E-01      0.7836209324E-01
          0                 4           1             4    7     1      -0.6254091981E-04       4    7    1        -0.3551200285E-02      0.8622986969E-02

    ------------------------------------------------
       NWT REQUIRED            4 OUTER ITERATIONS 
       AND A TOTAL OF          7 INNER ITERATIONS.
    ------------------------------------------------

 NO OUTPUT CONTROL FOR STRESS PERIOD   22   TIME STEP   15
 
 SOLVING FOR HEAD 
                                                   Max.-Head-Change                         Max.-Flux-Residual
  Residual-Control   Outer-Iter.   Inner-Iter.     Column Row Layer    Maximum-Head-Change  Column Row Layer    Maximum-Flux-Residual          L2-NORM 
          0                 1           2             4    7     1       0.7572401802E-01       4    7    1         0.3971773415E+01      0.9455466656E+01
          0                 2           2             4    7     1      -0.5773027481E-01       4    7    1        -0.3099932842E+01      0.7516763268E+01
          0                 3           2             4    7     1       0.3931197635E-02       4    7    1         0.2169941023E+00      0.5273244612E+00
          0                 4           2             4    7     1      -0.1564261264E-03       4    7    1        -0.8875077126E-02      0.2165619658E-01
          0                 5           1             4    7     1       0.1928801717E-05       4    7    1         0.1124745736E-03      0.2903076697E-03

    ------------------------------------------------
       NWT REQUIRED            5 OUTER ITERATIONS 
       AND A TOTAL OF          9 INNER ITERATIONS.
    ------------------------------------------------

 NO OUTPUT CONTROL FOR STRESS PERIOD   22   TIME STEP   16
 
 SOLVING FOR HEAD 
                                                   Max.-Head-Change                         Max.-Flux-Residual
  Residual-Control   Outer-Iter.   Inner-Iter.     Column Row Layer    Maximum-Head-Change  Column Row Layer    Maximum-Flux-Residual          L2-NORM 
          0                 1           2             4    7     1       0.7524744575E-01       4    7    1         0.3947000250E+01      0.9374617045E+01
          0                 2           2             4    7     1      -0.7567058952E-02       4    7    1        -0.4079843311E+00      0.9681569381E+00
          0                 3           2             4    7     1       0.5748520593E-03       4    7    1         0.3184468255E-01      0.7543604724E-01
          0                 4           1             4    7     1      -0.1031095810E-03       4    7    1        -0.5851965843E-02      0.1428983698E-01
          0                 5           2             4    7     1       0.1559645533E-03       4    7    1         0.9089308151E-02      0.2250830294E-01
          0                 6           1             4    7     1      -0.2209493207E-04       4    7    1        -0.1323299881E-02      0.3423572643E-02

    ------------------------------------------------
       NWT REQUIRED            6 OUTER ITERATIONS 
       AND A TOTAL OF         10 INNER ITERATIONS.
    ------------------------------------------------

 NO OUTPUT CONTROL FOR STRESS PERIOD   22   TIME STEP   17
 
 SOLVING FOR HEAD 
                                                   Max.-Head-Change                         Max.-Flux-Residual
  Residual-Control   Outer-Iter.   Inner-Iter.     Column Row Layer    Maximum-Head-Change  Column Row Layer    Maximum-Flux-Residual          L2-NORM 
          0                 1           2             4    7     1       0.7450814854E-01       4    7    1         0.3909676692E+01      0.9164767923E+01
          0                 2           2             4    7     1      -0.4968052682E-01       4    7    1        -0.2668091238E+01      0.6449216112E+01
          0                 3           2             4    7     1       0.3383044315E-02       4    7    1         0.1867654763E+00      0.4527824278E+00
          0                 4           2             4    7     1      -0.1346145708E-03       4    7    1        -0.7638723228E-02      0.1862148931E-01
          0                 5           1             7   13     1      -0.1665668934E-05       7   13    1        -0.9814730674E-04      0.2539963964E-03

    ------------------------------------------------
       NWT REQUIRED            5 OUTER ITERATIONS 
       AND A TOTAL OF          9 INNER ITERATIONS.
    ------------------------------------------------

 NO OUTPUT CONTROL FOR STRESS PERIOD   22   TIME STEP   18
 
 SOLVING FOR HEAD 
                                                   Max.-Head-Change                         Max.-Flux-Residual
  Residual-Control   Outer-Iter.   Inner-Iter.     Column Row Layer    Maximum-Head-Change  Column Row Layer    Maximum-Flux-Residual          L2-NORM 
          0                 1           2             4    7     1       0.7397242530E-01       4    7    1         0.3881844609E+01      0.9073126724E+01
          0                 2           2             4    7     1      -0.1233687256E-01       4    7    1        -0.6640922603E+00      0.1560881909E+01
          0                 3           2             4    7     1       0.5595857055E-02       4    7    1         0.3088349746E+00      0.7524410668E+00
          0                 4           2             4    7     1      -0.2260403184E-03       4    7    1        -0.1282279119E-01      0.3115230095E-01
          0                 5           1             4   13     1      -0.3106717919E-04       4   13    1        -0.1929469563E-02      0.3394104047E-02

    ------------------------------------------------
       NWT REQUIRED            5 OUTER ITERATIONS 
       AND A TOTAL OF          9 INNER ITERATIONS.
    ------------------------------------------------

 NO OUTPUT CONTROL FOR STRESS PERIOD   22   TIME STEP   19
 
 SOLVING FOR HEAD 
                                                   Max.-Head-Change                         Max.-Flux-Residual
  Residual-Control   Outer-Iter.   Inner-Iter.     Column Row Layer    Maximum-Head-Change  Column Row Layer    Maximum-Flux-Residual          L2-NORM 
          0                 1           2             4    7     1       0.7321593759E-01       4    7    1         0.3843456277E+01      0.8875704170E+01
          0                 2           2             4    7     1      -0.5001006573E-01       4    7    1        -0.2685902353E+01      0.6482220865E+01
          0                 3           2             4    7     1       0.3405484124E-02       4    7    1         0.1880122182E+00      0.4550000240E+00
          0                 4           2             4    7     1      -0.1355074748E-03       4    7    1        -0.7689715208E-02      0.1870510227E-01
          0                 5           1             4    7     1       0.1670865826E-05       4    7    1         0.9745239731E-04      0.2538271859E-03

    ------------------------------------------------
       NWT REQUIRED            5 OUTER ITERATIONS 
       AND A TOTAL OF          9 INNER ITERATIONS.
    ------------------------------------------------

 NO OUTPUT CONTROL FOR STRESS PERIOD   22   TIME STEP   20
 
 SOLVING FOR HEAD 
                                                   Max.-Head-Change                         Max.-Flux-Residual
  Residual-Control   Outer-Iter.   Inner-Iter.     Column Row Layer    Maximum-Head-Change  Column Row Layer    Maximum-Flux-Residual          L2-NORM 
          0                 1           2             4    7     1       0.7266802906E-01       4    7    1         0.3814824180E+01      0.8794868368E+01
          0                 2           2             4    7     1      -0.1012731747E-01       4    7    1        -0.5456257420E+00      0.1265655433E+01
          0                 3           2             4    7     1       0.3478095966E-02       4    7    1         0.1920178021E+00      0.4646698236E+00
          0                 4           2             4    7     1      -0.1611063322E-03       4    7    1        -0.9141223207E-02      0.2238165749E-01
          0                 5           1             4    7     1      -0.3451130676E-04       5    8    1        -0.1959526192E-02      0.5565029454E-02

    ------------------------------------------------
       NWT REQUIRED            5 OUTER ITERATIONS 
       AND A TOTAL OF          9 INNER ITERATIONS.
    ------------------------------------------------

 NO OUTPUT CONTROL FOR STRESS PERIOD   22   TIME STEP   21
 
 SOLVING FOR HEAD 
                                                   Max.-Head-Change                         Max.-Flux-Residual
  Residual-Control   Outer-Iter.   Inner-Iter.     Column Row Layer    Maximum-Head-Change  Column Row Layer    Maximum-Flux-Residual          L2-NORM 
          0                 1           2             4    7     1       0.7190005255E-01       4    7    1         0.3775694687E+01      0.8608009788E+01
          0                 2           2             4    7     1      -0.4851646396E-01       4    7    1        -0.2605845807E+01      0.6278109570E+01
          0                 3           2             4    7     1       0.3303775971E-02       4    7    1         0.1824082952E+00      0.4407443590E+00
          0                 4           2             4    7     1      -0.1314604094E-03       4    7    1        -0.7460514265E-02      0.1812453543E-01
          0                 5           1             4    7     1       0.1620963777E-05       7   13    1        -0.9464115647E-04      0.2469565903E-03

    ------------------------------------------------
       NWT REQUIRED            5 OUTER ITERATIONS 
       AND A TOTAL OF          9 INNER ITERATIONS.
    ------------------------------------------------

 NO OUTPUT CONTROL FOR STRESS PERIOD   22   TIME STEP   22
 
 SOLVING FOR HEAD 
                                                   Max.-Head-Change                         Max.-Flux-Residual
  Residual-Control   Outer-Iter.   Inner-Iter.     Column Row Layer    Maximum-Head-Change  Column Row Layer    Maximum-Flux-Residual          L2-NORM 
          0                 1           2             4    7     1       0.7133589944E-01       4    7    1         0.3746114574E+01      0.8532285716E+01
          0                 2           2             4    7     1      -0.1208865347E-01       4    7    1        -0.6509625366E+00      0.1509262781E+01
          0                 3           2             4    7     1       0.5583977243E-02       4    7    1         0.3081937932E+00      0.7497170338E+00
          0                 4           2             4    7     1      -0.2167705547E-03       4    7    1        -0.1229775538E-01      0.2981714122E-01
          0                 5           1             4   13     1      -0.3031306406E-04       4   13    1        -0.1882646293E-02      0.3885335448E-02

    ------------------------------------------------
       NWT REQUIRED            5 OUTER ITERATIONS 
       AND A TOTAL OF          9 INNER ITERATIONS.
    ------------------------------------------------

 NO OUTPUT CONTROL FOR STRESS PERIOD   22   TIME STEP   23
 
 SOLVING FOR HEAD 
                                                   Max.-Head-Change                         Max.-Flux-Residual
  Residual-Control   Outer-Iter.   Inner-Iter.     Column Row Layer    Maximum-Head-Change  Column Row Layer    Maximum-Flux-Residual          L2-NORM 
          0                 1           2             4    7     1       0.7056064159E-01       4    7    1         0.3706478897E+01      0.8355236669E+01
          0                 2           2             4    7     1      -0.4506181937E-01       4    7    1        -0.2420528610E+01      0.5818268796E+01
          0                 3           2             4    7     1       0.3068529228E-02       4    7    1         0.1694361979E+00      0.4086437623E+00
          0                 4           2             4    7     1      -0.1220997129E-03       4    7    1        -0.6929954216E-02      0.1681818359E-01
          0                 5           1             7   13     1      -0.1600275849E-05       7   13    1        -0.9429555121E-04      0.2314357853E-03

    ------------------------------------------------
       NWT REQUIRED            5 OUTER ITERATIONS 
       AND A TOTAL OF          9 INNER ITERATIONS.
    ------------------------------------------------

 NO OUTPUT CONTROL FOR STRESS PERIOD   22   TIME STEP   24
 
 SOLVING FOR HEAD 
                                                   Max.-Head-Change                         Max.-Flux-Residual
  Residual-Control   Outer-Iter.   Inner-Iter.     Column Row Layer    Maximum-Head-Change  Column Row Layer    Maximum-Flux-Residual          L2-NORM 
          0                 1           2             4    7     1       0.6997414096E-01       4    7    1         0.3675695029E+01      0.8279046403E+01
          0                 2           2             4    7     1      -0.1354421559E-01       4    7    1        -0.7291413675E+00      0.1690727411E+01
          0                 3           2             4    7     1       0.7214045907E-02       4    7    1         0.3981210365E+00      0.9704211041E+00
          0                 4           2             4    7     1      -0.2920828386E-03       4    7    1        -0.1656834211E-01      0.4029680089E-01
          0                 5           1             4   13     1      -0.3372234220E-04       4   13    1        -0.2094013758E-02      0.4255059521E-02

    ------------------------------------------------
       NWT REQUIRED            5 OUTER ITERATIONS 
       AND A TOTAL OF          9 INNER ITERATIONS.
    ------------------------------------------------

 NO OUTPUT CONTROL FOR STRESS PERIOD   22   TIME STEP   25
 
 SOLVING FOR HEAD 
                                                   Max.-Head-Change                         Max.-Flux-Residual
  Residual-Control   Outer-Iter.   Inner-Iter.     Column Row Layer    Maximum-Head-Change  Column Row Layer    Maximum-Flux-Residual          L2-NORM 
          0                 1           2             4    7     1       0.6919470882E-01       4    7    1         0.3635727343E+01      0.8111167064E+01
          0                 2           2             4    7     1      -0.4237935396E-01       4    7    1        -0.2276634423E+01      0.5460811020E+01
          0                 3           2             4    7     1       0.2885864544E-02       4    7    1         0.1593636816E+00      0.3836939599E+00
          0                 4           2             4    7     1      -0.1148313082E-03       4    7    1        -0.6517987352E-02      0.1580324516E-01
          0                 5           1             7   13     1      -0.1591063253E-05       7   13    1        -0.9375542459E-04      0.2194432657E-03

    ------------------------------------------------
       NWT REQUIRED            5 OUTER ITERATIONS 
       AND A TOTAL OF          9 INNER ITERATIONS.
    ------------------------------------------------

 NO OUTPUT CONTROL FOR STRESS PERIOD   22   TIME STEP   26
 
 SOLVING FOR HEAD 
                                                   Max.-Head-Change                         Max.-Flux-Residual
  Residual-Control   Outer-Iter.   Inner-Iter.     Column Row Layer    Maximum-Head-Change  Column Row Layer    Maximum-Flux-Residual          L2-NORM 
          0                 1           2             4    7     1       0.6859277868E-01       4    7    1         0.3604093050E+01      0.8036089046E+01
          0                 2           2             4    7     1      -0.1448545876E-01       4    7    1        -0.7797039689E+00      0.1807266624E+01
          0                 3           2             4    7     1       0.8371900004E-02       4    7    1         0.4619979366E+00      0.1127112602E+01
          0                 4           2             4    7     1      -0.3383498530E-03       4    7    1        -0.1919196434E-01      0.4679689779E-01
          0                 5           1             4   13     1      -0.2842337166E-04       4   13    1        -0.1764679464E-02      0.3654980856E-02

    ------------------------------------------------
       NWT REQUIRED            5 OUTER ITERATIONS 
       AND A TOTAL OF          9 INNER ITERATIONS.
    ------------------------------------------------

 NO OUTPUT CONTROL FOR STRESS PERIOD   22   TIME STEP   27
 
 SOLVING FOR HEAD 
                                                   Max.-Head-Change                         Max.-Flux-Residual
  Residual-Control   Outer-Iter.   Inner-Iter.     Column Row Layer    Maximum-Head-Change  Column Row Layer    Maximum-Flux-Residual          L2-NORM 
          0                 1           2             4    7     1       0.6781196789E-01       4    7    1         0.3563951793E+01      0.7876649035E+01
          0                 2           2             4    7     1      -0.3958710907E-01       4    7    1        -0.2126833977E+01      0.5090010583E+01
          0                 3           2             4    7     1       0.2695724308E-02       4    7    1         0.1488777287E+00      0.3578212524E+00
          0                 4           2             4    7     1      -0.1072654443E-03       4    7    1        -0.6089110900E-02      0.1475131624E-01
          0                 5           1             7   13     1      -0.1580243921E-05       7   13    1        -0.9311663007E-04      0.2071208266E-03

    ------------------------------------------------
       NWT REQUIRED            5 OUTER ITERATIONS 
       AND A TOTAL OF          9 INNER ITERATIONS.
    ------------------------------------------------

 NO OUTPUT CONTROL FOR STRESS PERIOD   22   TIME STEP   28
 
 SOLVING FOR HEAD 
                                                   Max.-Head-Change                         Max.-Flux-Residual
  Residual-Control   Outer-Iter.   Inner-Iter.     Column Row Layer    Maximum-Head-Change  Column Row Layer    Maximum-Flux-Residual          L2-NORM 
          0                 1           2             4    7     1       0.6719653610E-01       4    7    1         0.3531580249E+01      0.7802050778E+01
          0                 2           2             4    7     1      -0.1599008598E-01       4    7    1        -0.8604871591E+00      0.1998900937E+01
          0                 3           2             4    7     1       0.7649189692E-02       4    7    1         0.4221331758E+00      0.1029501767E+01
          0                 4           2             4    7     1      -0.5263840474E-03       4    7    1        -0.2985410797E-01      0.7304465655E-01
          0                 5           2             4    7     1      -0.1077366573E-03       5    8    1        -0.6112518074E-02      0.1497116727E-01
          0                 6           1             4    7     1      -0.8421700612E-04       5    8    1        -0.4775239087E-02      0.1169686922E-01

    ------------------------------------------------
       NWT REQUIRED            6 OUTER ITERATIONS 
       AND A TOTAL OF         11 INNER ITERATIONS.
    ------------------------------------------------

 NO OUTPUT CONTROL FOR STRESS PERIOD   22   TIME STEP   29
 
 SOLVING FOR HEAD 
                                                   Max.-Head-Change                         Max.-Flux-Residual
  Residual-Control   Outer-Iter.   Inner-Iter.     Column Row Layer    Maximum-Head-Change  Column Row Layer    Maximum-Flux-Residual          L2-NORM 
          0                 1           2             4    7     1       0.6643235263E-01       4    7    1         0.3492143399E+01      0.7657940687E+01
          0                 2           2             4    7     1      -0.3537249775E-01       4    7    1        -0.1900682738E+01      0.4533787485E+01
          0                 3           2             4    7     1       0.2408726824E-02       4    7    1         0.1330472586E+00      0.3190604859E+00
          0                 4           1             4    7     1      -0.9584553734E-04       4    7    1        -0.5441643196E-02      0.1317921139E-01

    ------------------------------------------------
       NWT REQUIRED            4 OUTER ITERATIONS 
       AND A TOTAL OF          7 INNER ITERATIONS.
    ------------------------------------------------

 NO OUTPUT CONTROL FOR STRESS PERIOD   22   TIME STEP   30



 STREAM LISTING     PERIOD     22   STEP       30

 LAYER ROW COL. STREAM  RCH.  FLOW INTO     FLOW TO   FLOW OUT OF   OVRLND.     DIRECT     STREAM       STREAM     STREAM     STREAM   STREAMBED  STREAMBED
                SEG.NO.  NO.  STRM. RCH.    AQUIFER    STRM. RCH.    RUNOFF     PRECIP       ET          HEAD       DEPTH      WIDTH   CONDCTNC.   GRADIENT

   1    1    1     1     1    9.1618E+00  1.4063E-01   9.0211E+00  0.000E+00  0.000E+00  0.000E+00  1.09392E+03  8.721E-01  8.071E+00  3.632E-02  1.291E+00
   1    2    2     1     2    9.0211E+00  2.1609E-01   8.8050E+00  0.000E+00  0.000E+00  0.000E+00  1.08893E+03  8.664E-01  7.984E+00  5.589E-02  1.289E+00
   1    3    3     1     3    8.8050E+00  1.8264E-01   8.6224E+00  0.000E+00  0.000E+00  0.000E+00  1.08328E+03  8.600E-01  7.886E+00  4.732E-02  1.287E+00
   1    3    4     1     4    8.6224E+00  1.6685E-01   8.4556E+00  0.000E+00  0.000E+00  0.000E+00  1.07826E+03  8.543E-01  7.800E+00  4.329E-02  1.285E+00
   1    4    5     2     1    6.4556E+00  2.7527E-01   6.1803E+00  0.000E+00  0.000E+00  0.000E+00  1.07246E+03  5.290E-01  1.200E+01  7.800E-02  1.176E+00
   1    5    6     2     2    6.1803E+00  2.1100E-01   5.9693E+00  0.000E+00  0.000E+00  0.000E+00  1.06703E+03  5.167E-01  1.200E+01  6.000E-02  1.172E+00
   1    6    6     2     3    5.9693E+00  2.1035E-01   5.7589E+00  0.000E+00  0.000E+00  0.000E+00  1.06230E+03  5.059E-01  1.200E+01  6.000E-02  1.169E+00
   1    7    6     2     4    5.7589E+00  2.0970E-01   5.5492E+00  0.000E+00  0.000E+00  0.000E+00  1.05757E+03  4.950E-01  1.200E+01  6.000E-02  1.165E+00
   1    8    6     2     5    5.5492E+00  2.0903E-01   5.3402E+00  0.000E+00  0.000E+00  0.000E+00  1.05284E+03  4.839E-01  1.200E+01  6.000E-02  1.161E+00
   1    3    5     3     1    2.0000E+00  2.8252E-01   1.7175E+00  0.000E+00  0.000E+00  0.000E+00  1.07555E+03  1.909E+00  9.636E+00  7.227E-02  1.955E+00
   1    3    6     3     2    1.7175E+00  2.4905E-01   1.4684E+00  0.000E+00  0.000E+00  0.000E+00  1.07264E+03  1.727E+00  8.909E+00  6.682E-02  1.864E+00
   1    3    7     3     3    1.4684E+00  1.9718E-01   1.2712E+00  0.000E+00  0.000E+00  0.000E+00  1.06987E+03  1.555E+00  8.218E+00  5.547E-02  1.777E+00
   1    4    8     3     4    1.2712E+00  2.2567E-01   1.0456E+00  0.000E+00  0.000E+00  0.000E+00  1.06682E+03  1.364E+00  7.455E+00  6.709E-02  1.682E+00
   1    5    8     3     5    1.0456E+00  1.5790E-01   8.8768E-01  0.000E+00  0.000E+00  0.000E+00  1.06362E+03  1.164E+00  6.655E+00  4.991E-02  1.582E+00
   1    6    8     3     6    8.8768E-01  5.5980E-02   8.3170E-01  0.000E+00  0.000E+00  0.000E+00  1.06158E+03  1.036E+00  6.145E+00  1.844E-02  1.518E+00
   1    5   10     4     1    1.0000E+01  9.0919E-02   9.9091E+00  0.000E+00  0.000E+00  0.000E+00  1.07836E+03  6.368E-01  1.000E+01  2.500E-02  1.212E+00
   1    5    9     4     2    9.9091E+00  1.8158E-01   9.7275E+00  0.000E+00  0.000E+00  0.000E+00  1.07154E+03  6.315E-01  1.000E+01  5.000E-02  1.211E+00
   1    6    8     4     3    9.7275E+00  1.2689E-01   9.6006E+00  0.000E+00  0.000E+00  0.000E+00  1.06381E+03  6.256E-01  1.000E+01  3.500E-02  1.209E+00
   1    6    8     5     1    1.0432E+01  2.2686E-01   1.0205E+01  0.000E+00  0.000E+00  0.000E+00  1.05868E+03  6.790E-01  1.542E+01  6.166E-02  1.226E+00
   1    7    7     5     2    1.0205E+01  2.7894E-01   9.9265E+00  0.000E+00  0.000E+00  0.000E+00  1.05417E+03  6.732E-01  1.519E+01  7.594E-02  1.224E+00
   1    8    7     5     3    9.9265E+00  1.9221E-01   9.7343E+00  0.000E+00  0.000E+00  0.000E+00  1.04992E+03  6.676E-01  1.497E+01  5.241E-02  1.223E+00
   1    8    6     5     4    9.7343E+00  1.3577E-01   9.5985E+00  0.000E+00  0.000E+00  0.000E+00  1.04691E+03  6.637E-01  1.482E+01  3.706E-02  1.221E+00
   1    9    6     6     1    9.5985E+00  2.2097E-01   9.3776E+00  0.000E+00  0.000E+00  0.000E+00  1.04341E+03  6.828E-01  1.200E+01  6.000E-02  1.228E+00
   1   10    7     6     2    9.3776E+00  2.2039E-01   9.1572E+00  0.000E+00  0.000E+00  0.000E+00  1.03885E+03  6.732E-01  1.200E+01  6.000E-02  1.224E+00
   1   11    7     6     3    9.1572E+00  2.1981E-01   8.9374E+00  0.000E+00  0.000E+00  0.000E+00  1.03430E+03  6.636E-01  1.200E+01  6.000E-02  1.221E+00
   1   12    7     6     4    8.9374E+00  2.1923E-01   8.7181E+00  0.000E+00  0.000E+00  0.000E+00  1.02974E+03  6.539E-01  1.200E+01  6.000E-02  1.218E+00
   1   13    7     6     5    8.7181E+00 -3.7463E-02   8.7556E+00  0.000E+00  0.000E+00  0.000E+00  1.02656E+03  6.498E-01  1.200E+01  2.400E-01 -5.203E-02
   1   14    9     7     1    1.5000E+02  1.3745E+00   1.4863E+02  0.000E+00  0.000E+00  0.000E+00  1.03987E+03  2.288E+00  5.529E+01  5.593E-01  8.192E-01
   1   13    8     7     2    1.4863E+02  1.9501E+00   1.4668E+02  0.000E+00  0.000E+00  0.000E+00  1.03478E+03  2.279E+00  5.525E+01  6.147E-01  1.057E+00
   1   13    7     7     3    1.4668E+02  1.6604E+00   1.4502E+02  0.000E+00  0.000E+00  0.000E+00  1.02969E+03  2.269E+00  5.521E+01  5.584E-01  9.912E-01
   1   13    6     8     1    1.5377E+02  1.0154E+00   1.5276E+02  0.000E+00  0.000E+00  0.000E+00  1.02471E+03  2.840E+00  4.118E+01  4.196E-01  8.066E-01
   1   13    5     8     2    1.5276E+02  2.7687E-01   1.5248E+02  0.000E+00  0.000E+00  0.000E+00  1.01846E+03  2.835E+00  4.111E+01  4.189E-01  2.203E-01
   1   13    4     8     3    1.5248E+02 -2.0806E+00   1.5456E+02  0.000E+00  0.000E+00  0.000E+00  1.01222E+03  2.841E+00  4.120E+01  4.199E+00 -1.652E-01
   1   13    3     8     4    1.5456E+02 -3.4770E+00   1.5804E+02  0.000E+00  0.000E+00  0.000E+00  1.00599E+03  2.861E+00  4.148E+01  4.227E+00 -2.742E-01
   1   13    2     8     5    1.5804E+02 -2.5554E+00   1.6059E+02  0.000E+00  0.000E+00  0.000E+00  9.99756E+02  2.881E+00  4.178E+01  4.257E+00 -2.001E-01
   1   13    1     8     6    1.6059E+02 -1.9810E+00   1.6257E+02  0.000E+00  0.000E+00  0.000E+00  9.94771E+02  2.897E+00  4.200E+01  2.568E+00 -2.571E-01
   1    8    6     9     1    5.3402E+00  0.0000E+00   5.3402E+00  0.000E+00  0.000E+00  0.000E+00  1.08031E+03  1.555E+00  4.000E+00  0.000E+00  1.518E+00
   1    8    5     9     2    5.3402E+00  0.0000E+00   5.3402E+00  0.000E+00  0.000E+00  0.000E+00  1.07981E+03  1.555E+00  4.000E+00  0.000E+00  1.518E+00





UNSATURATED ZONE PACKAGE VOLUMETRIC BUDGET FOR  TIME STEP    30 STRESS PERIOD   22
  ------------------------------------------------------------------------------



     CUMULATIVE VOLUMES      L**3       RATES FOR THIS TIME STEP      L**3/T
     ------------------                 ------------------------

           IN:                                      IN:
           ---                                      ---
        INFILTRATION =  1209758674.0046          INFILTRATION =          19.0566

          OUT:                                     OUT:
          ----                                     ----
              UZF ET =   984998131.1382                UZF ET =          15.3575
        UZF RECHARGE =      167968.6155          UZF RECHARGE =       0.0000E+00

            IN - OUT =   224592574.2509              IN - OUT =           3.6991

          STORAGE:                                 STORAGE:
          --------                                 --------
      STORAGE CHANGE =   224592559.2789        STORAGE CHANGE =           3.6991

 PERCENT DISCREPANCY IS DIFFERENCE BETWEEN IN-OUT MINUS CHANGE IN STORAGE
 DIVIDED BY THE AVERAGE OF IN AND OUT TIMES 100

 PERCENT DISCREPANCY =           0.00     PERCENT DISCREPANCY =           0.00






1
  VOLUMETRIC BUDGET FOR AGRICULTURAL FIELDS AT  END OF TIME STEP   30, STRESS PERIOD  22
  ------------------------------------------------------------------------------

     CUMULATIVE VOLUMES      L**3       RATES FOR THIS TIME STEP      L**3/T
     ------------------                 ------------------------

           IN:                                      IN:
           ---                                      ---
               AG WELLS  =   599544832.0000                 AG WELLS  =           9.3088
      DIVERSION SEGMENTS =   366911456.0000        DIVERSION SEGMENTS =           5.3402
           GW IRRIGATION =           0.0000             GW IRRIGATION =           0.0000
           SW IRRIGATION =           0.0000             SW IRRIGATION =           0.0000
        SYSTEM LOSSES GW =           0.0000          SYSTEM LOSSES GW =           0.0000
        SYSTEM LOSSES SW =           0.0000          SYSTEM LOSSES SW =           0.0000

                TOTAL IN =   966456320.0000                  TOTAL IN =          14.6490

          OUT:                                     OUT:
          ----                                     ----
               AG WELLS  =           0.0000                 AG WELLS  =           0.0000
      DIVERSION SEGMENTS =           0.0000        DIVERSION SEGMENTS =           0.0000
           GW IRRIGATION =   599544832.0000             GW IRRIGATION =           9.3088
           SW IRRIGATION =   366918816.0000             SW IRRIGATION =           5.3403
        SYSTEM LOSSES GW =           0.0000          SYSTEM LOSSES GW =           0.0000
        SYSTEM LOSSES SW =           0.0000          SYSTEM LOSSES SW =           0.0000

               TOTAL OUT =   966463616.0000                 TOTAL OUT =          14.6491

                IN - OUT =       -7296.0000                  IN - OUT =      -1.0681E-04

     PERCENT DISCREPANCY =          -0.00         PERCENT DISCREPANCY =          -0.00



1
  VOLUMETRIC BUDGET FOR ENTIRE MODEL AT END OF TIME STEP   30, STRESS PERIOD  22
  ------------------------------------------------------------------------------

     CUMULATIVE VOLUMES      L**3       RATES FOR THIS TIME STEP      L**3/T
     ------------------                 ------------------------

           IN:                                      IN:
           ---                                      ---
             STORAGE     =   802440064.0000               STORAGE     =          16.3194
       CONSTANT HEAD     =           0.0000         CONSTANT HEAD     =           0.0000
     HEAD DEP BOUNDS     =    15933798.0000       HEAD DEP BOUNDS     =           0.2884
      STREAM LEAKAGE     =   650915072.0000        STREAM LEAKAGE     =          11.3807
        UZF RECHARGE     =      167968.5625          UZF RECHARGE     =           0.0000
               GW ET     =           0.0000                 GW ET     =           0.0000
     SURFACE LEAKAGE     =           0.0000       SURFACE LEAKAGE     =           0.0000
           AG WELLS      =           0.0000             AG WELLS      =           0.0000

                TOTAL IN =  1469456896.0000                  TOTAL IN =          27.9885

          OUT:                                     OUT:
          ----                                     ----
             STORAGE     =   288099872.0000               STORAGE     =           8.2613
       CONSTANT HEAD     =           0.0000         CONSTANT HEAD     =           0.0000
     HEAD DEP BOUNDS     =    15930070.0000       HEAD DEP BOUNDS     =           0.2866
      STREAM LEAKAGE     =   565887872.0000        STREAM LEAKAGE     =          10.1315
        UZF RECHARGE     =           0.0000          UZF RECHARGE     =           0.0000
               GW ET     =           0.0000                 GW ET     =           0.0000
     SURFACE LEAKAGE     =           0.0000       SURFACE LEAKAGE     =           0.0000
           AG WELLS      =   599544832.0000             AG WELLS      =           9.3088

               TOTAL OUT =  1469462656.0000                 TOTAL OUT =          27.9882

                IN - OUT =       -5760.0000                  IN - OUT =       2.9373E-04

     PERCENT DISCREPANCY =          -0.00         PERCENT DISCREPANCY =           0.00






         TIME SUMMARY AT END OF TIME STEP   30 IN STRESS PERIOD   22
                    SECONDS     MINUTES      HOURS       DAYS        YEARS
                    -----------------------------------------------------------
   TIME STEP LENGTH  87667.      1461.1      24.352      1.0147     2.77799E-03
 STRESS PERIOD TIME 2.63000E+06  43833.      730.56      30.440     8.33397E-02
         TOTAL TIME 5.53166E+07 9.21944E+05  15366.      640.24      1.7529    
1
1
                            STRESS PERIOD NO.   23, LENGTH =   2630000.    
                            -----------------------------------------------

                              NUMBER OF TIME STEPS =    30

                               MULTIPLIER FOR DELT =     1.000

                            INITIAL TIME STEP SIZE =   87666.66    

 REUSING NON-PARAMETER GHB CELLS FROM LAST STRESS PERIOD

      2 GHB CELLS

 REUSING STREAM SEGMENT DATA FROM LAST STRESS PERIOD



            AREAL INFILTRATION RATE
 READING ON UNIT   19 WITH FORMAT: (10F4.0)            

            1           2           3           4           5           6           7           8           9          10
 ........................................................................................................................
   1   1.2000E-09   0.000       0.000       0.000       0.000       0.000       0.000       0.000       0.000       0.000    
   2   2.1000E-09  2.0000E-09  8.0000E-10  8.5000E-09   0.000       0.000       0.000       0.000       0.000       0.000    
   3   5.0000E-10  1.1000E-09  8.8000E-09  5.5000E-09   0.000       0.000       0.000       0.000       0.000       0.000    
   4   8.5000E-09  1.1000E-09  1.1000E-09  1.1000E-09  2.0000E-09   0.000       0.000       0.000       0.000       0.000    
   5   8.5000E-09  1.1000E-09  1.1000E-09  1.1000E-09  1.1000E-09   0.000       0.000       0.000       0.000       0.000    
   6   8.5000E-09  5.2000E-09  2.1000E-09  1.1000E-09  1.5000E-09   0.000       0.000       0.000       0.000       0.000    
   7   8.5000E-09  5.2000E-09  2.1000E-09  1.2000E-09  2.0000E-09   0.000       0.000       0.000       0.000       0.000    
   8   5.0000E-10  5.2000E-09  2.1000E-09  1.2000E-09  5.0000E-09   0.000       0.000       0.000       0.000       0.000    
   9   5.0000E-10  5.2000E-09  2.1000E-09  1.2000E-09  5.0000E-09   0.000       0.000       0.000       0.000       0.000    
  10   5.0000E-10  5.2000E-09  2.1000E-09  1.2000E-09  5.8000E-09   0.000       0.000       0.000       0.000       0.000    
  11   1.0000E-10  1.1000E-09  1.1000E-09  1.2000E-09  5.0000E-09   0.000       0.000       0.000       0.000       0.000    
  12   1.1000E-09  1.1000E-09  1.1000E-09  1.1000E-09  2.0000E-09   0.000       0.000       0.000       0.000       0.000    
  13   1.1000E-09  2.2000E-09  2.2000E-09  2.1000E-09  1.0000E-09   0.000       0.000       0.000       0.000       0.000    
  14   2.0000E-10  5.5000E-09  5.5000E-09  5.2000E-09  1.0000E-09   0.000       0.000       0.000       0.000       0.000    
  15    0.000      8.8000E-09  8.8000E-09   0.000       0.000       0.000       0.000       0.000       0.000       0.000    

                  ET RATE =  5.000000E-09

 USING ET EXTINCTION DEPTH FROM PREVIOUS STRESS PERIOD. CURRENT PERIOD IS:      23

 USING EXTINCTION WATER CONTENT FROM PREVIOUS STRESS PERIOD. CURRENT PERIOD IS:      23

 USING AIR ENTRY PRESSURE FROM PREVIOUS STRESS PERIOD. CURRENT PERIOD IS:      23

 USING ROOT PRESSURE HEAD FROM PREVIOUS STRESS PERIOD. CURRENT PERIOD IS:      23

 USING ROOT ACTIVITY FROM PREVIOUS STRESS PERIOD. CURRENT PERIOD IS:      23

 PROCESSING AG STRESS PERIOD DATA

 READING AG STRESS PERIOD DATA

 READING IRRIGATION SEGMENT

 READING IRRIGATION WELL

 READING SUPPLEMENTAL WELL

 END PROCESSING AG STRESS PERIOD DATA OPTIONS
 
 SOLVING FOR HEAD 
                                                   Max.-Head-Change                         Max.-Flux-Residual
  Residual-Control   Outer-Iter.   Inner-Iter.     Column Row Layer    Maximum-Head-Change  Column Row Layer    Maximum-Flux-Residual          L2-NORM 
          0                 1           2             4    7     1       0.6579967972E-01       4    7    1         0.3458889369E+01      0.7581200198E+01
          0                 2           2             4    7     1      -0.6400568505E-02       4    7    1        -0.3458926189E+00      0.7581423198E+00
          0                 3           2             4    7     1       0.4358544594E-03       4    7    1         0.2421245894E-01      0.5306954193E-01
          0                 4           1             4    7     1      -0.1734305888E-04       4    7    1        -0.9902911129E-03      0.2170523229E-02

    ------------------------------------------------
       NWT REQUIRED            4 OUTER ITERATIONS 
       AND A TOTAL OF          7 INNER ITERATIONS.
    ------------------------------------------------

 NO OUTPUT CONTROL FOR STRESS PERIOD   23   TIME STEP    1
 
 SOLVING FOR HEAD 
                                                   Max.-Head-Change                         Max.-Flux-Residual
  Residual-Control   Outer-Iter.   Inner-Iter.     Column Row Layer    Maximum-Head-Change  Column Row Layer    Maximum-Flux-Residual          L2-NORM 
          0                 1           2             4    7     1       0.6502260698E-01       4    7    1         0.3418773609E+01      0.7436327099E+01
          0                 2           2             4    7     1      -0.6324981275E-02       4    7    1        -0.3418810922E+00      0.7436291566E+00
          0                 3           2             4    7     1       0.4307072416E-03       4    7    1         0.2393165147E-01      0.5205367350E-01
          0                 4           1             4    7     1      -0.1713824654E-04       4    7    1        -0.9788060702E-03      0.2128973167E-02

    ------------------------------------------------
       NWT REQUIRED            4 OUTER ITERATIONS 
       AND A TOTAL OF          7 INNER ITERATIONS.
    ------------------------------------------------

 NO OUTPUT CONTROL FOR STRESS PERIOD   23   TIME STEP    2
 
 SOLVING FOR HEAD 
                                                   Max.-Head-Change                         Max.-Flux-Residual
  Residual-Control   Outer-Iter.   Inner-Iter.     Column Row Layer    Maximum-Head-Change  Column Row Layer    Maximum-Flux-Residual          L2-NORM 
          0                 1           2             4    7     1       0.6424178967E-01       4    7    1         0.3378396838E+01      0.7296546868E+01
          0                 2           2             4    7     1      -0.6249029596E-02       4    7    1        -0.3378434508E+00      0.7296519564E+00
          0                 3           2             4    7     1       0.4255352089E-03       4    7    1         0.2364901613E-01      0.5107535944E-01
          0                 4           1             4    7     1      -0.1693244674E-04       4    7    1        -0.9672462802E-03      0.2088986290E-02

    ------------------------------------------------
       NWT REQUIRED            4 OUTER ITERATIONS 
       AND A TOTAL OF          7 INNER ITERATIONS.
    ------------------------------------------------

 NO OUTPUT CONTROL FOR STRESS PERIOD   23   TIME STEP    3
 
 SOLVING FOR HEAD 
                                                   Max.-Head-Change                         Max.-Flux-Residual
  Residual-Control   Outer-Iter.   Inner-Iter.     Column Row Layer    Maximum-Head-Change  Column Row Layer    Maximum-Flux-Residual          L2-NORM 
          0                 1           2             4    7     1       0.6345855249E-01       4    7    1         0.3337833144E+01      0.7161563954E+01
          0                 2           2             4    7     1      -0.6172842346E-02       4    7    1        -0.3337871048E+00      0.7161543477E+00
          0                 3           2             4    7     1       0.4203471359E-03       4    7    1         0.2336507156E-01      0.5013055406E-01
          0                 4           1             4    7     1      -0.1672600856E-04       4    7    1        -0.9556329346E-03      0.2050330397E-02

    ------------------------------------------------
       NWT REQUIRED            4 OUTER ITERATIONS 
       AND A TOTAL OF          7 INNER ITERATIONS.
    ------------------------------------------------

 NO OUTPUT CONTROL FOR STRESS PERIOD   23   TIME STEP    4
 
 SOLVING FOR HEAD 
                                                   Max.-Head-Change                         Max.-Flux-Residual
  Residual-Control   Outer-Iter.   Inner-Iter.     Column Row Layer    Maximum-Head-Change  Column Row Layer    Maximum-Flux-Residual          L2-NORM 
          0                 1           2             4    7     1       0.6267386909E-01       4    7    1         0.3297136700E+01      0.7031116468E+01
          0                 2           2             4    7     1      -0.6096514252E-02       4    7    1        -0.3297174727E+00      0.7031102255E+00
          0                 3           2             4    7     1       0.4151494735E-03       4    7    1         0.2308019708E-01      0.4921750378E-01
          0                 4           1             4    7     1      -0.1651918850E-04       4    7    1        -0.9439815399E-03      0.2012983197E-02

    ------------------------------------------------
       NWT REQUIRED            4 OUTER ITERATIONS 
       AND A TOTAL OF          7 INNER ITERATIONS.
    ------------------------------------------------

 NO OUTPUT CONTROL FOR STRESS PERIOD   23   TIME STEP    5
 
 SOLVING FOR HEAD 
                                                   Max.-Head-Change                         Max.-Flux-Residual
  Residual-Control   Outer-Iter.   Inner-Iter.     Column Row Layer    Maximum-Head-Change  Column Row Layer    Maximum-Flux-Residual          L2-NORM 
          0                 1           2             4    7     1       0.6188889997E-01       4    7    1         0.3256372502E+01      0.6904953987E+01
          0                 2           2             4    7     1      -0.6020158218E-02       4    7    1        -0.3256410554E+00      0.6904944883E+00
          0                 3           2             4    7     1       0.4099499102E-03       4    7    1         0.2279484773E-01      0.4833442959E-01
          0                 4           1             4    7     1      -0.1631229281E-04       4    7    1        -0.9323107361E-03      0.1976864761E-02

    ------------------------------------------------
       NWT REQUIRED            4 OUTER ITERATIONS 
       AND A TOTAL OF          7 INNER ITERATIONS.
    ------------------------------------------------

 NO OUTPUT CONTROL FOR STRESS PERIOD   23   TIME STEP    6
 
 SOLVING FOR HEAD 
                                                   Max.-Head-Change                         Max.-Flux-Residual
  Residual-Control   Outer-Iter.   Inner-Iter.     Column Row Layer    Maximum-Head-Change  Column Row Layer    Maximum-Flux-Residual          L2-NORM 
          0                 1           2             4    7     1       0.6110446136E-01       4    7    1         0.3215586204E+01      0.6782858169E+01
          0                 2           2             4    7     1      -0.5943853655E-02       4    7    1        -0.3215624192E+00      0.6782853435E+00
          0                 3           2             4    7     1       0.4047538530E-03       4    7    1         0.2250934313E-01      0.4747981686E-01
          0                 4           1             4    7     1      -0.1610553676E-04       4    7    1        -0.9206335767E-03      0.1941914052E-02

    ------------------------------------------------
       NWT REQUIRED            4 OUTER ITERATIONS 
       AND A TOTAL OF          7 INNER ITERATIONS.
    ------------------------------------------------

 NO OUTPUT CONTROL FOR STRESS PERIOD   23   TIME STEP    7
 
 SOLVING FOR HEAD 
                                                   Max.-Head-Change                         Max.-Flux-Residual
  Residual-Control   Outer-Iter.   Inner-Iter.     Column Row Layer    Maximum-Head-Change  Column Row Layer    Maximum-Flux-Residual          L2-NORM 
          0                 1           2             4    7     1       0.6032143522E-01       4    7    1         0.3174827386E+01      0.6664616891E+01
          0                 2           2             4    7     1      -0.5867686366E-02       4    7    1        -0.3174865229E+00      0.6664616052E+00
          0                 3           2             4    7     1       0.3995671449E-03       4    7    1         0.2222403039E-01      0.4665219331E-01
          0                 4           1             4    7     1      -0.1589915304E-04       4    7    1        -0.9089642704E-03      0.1908066695E-02

    ------------------------------------------------
       NWT REQUIRED            4 OUTER ITERATIONS 
       AND A TOTAL OF          7 INNER ITERATIONS.
    ------------------------------------------------

 NO OUTPUT CONTROL FOR STRESS PERIOD   23   TIME STEP    8
 
 SOLVING FOR HEAD 
                                                   Max.-Head-Change                         Max.-Flux-Residual
  Residual-Control   Outer-Iter.   Inner-Iter.     Column Row Layer    Maximum-Head-Change  Column Row Layer    Maximum-Flux-Residual          L2-NORM 
          0                 1           2             4    7     1       0.5954063284E-01       4    7    1         0.3134141775E+01      0.6550027066E+01
          0                 2           2             4    7     1      -0.5791735284E-02       4    7    1        -0.3134179403E+00      0.6550029473E+00
          0                 3           2             4    7     1       0.3943951607E-03       4    7    1         0.2193922970E-01      0.4585011601E-01
          0                 4           1             4    7     1      -0.1569335486E-04       4    7    1        -0.8973159015E-03      0.1875272259E-02

    ------------------------------------------------
       NWT REQUIRED            4 OUTER ITERATIONS 
       AND A TOTAL OF          7 INNER ITERATIONS.
    ------------------------------------------------

 NO OUTPUT CONTROL FOR STRESS PERIOD   23   TIME STEP    9
 
 SOLVING FOR HEAD 
                                                   Max.-Head-Change                         Max.-Flux-Residual
  Residual-Control   Outer-Iter.   Inner-Iter.     Column Row Layer    Maximum-Head-Change  Column Row Layer    Maximum-Flux-Residual          L2-NORM 
          0                 1           2             4    7     1       0.5876293638E-01       4    7    1         0.3093578698E+01      0.6438924394E+01
          0                 2           2             4    7     1      -0.5716086229E-02       4    7    1        -0.3093616049E+00      0.6438920094E+00
          0                 3           2             4    7     1       0.3892437446E-03       4    7    1         0.2165528635E-01      0.4507236195E-01
          0                 4           1             4    7     1      -0.1548837534E-04       4    7    1        -0.8857026164E-03      0.1843456816E-02

    ------------------------------------------------
       NWT REQUIRED            4 OUTER ITERATIONS 
       AND A TOTAL OF          7 INNER ITERATIONS.
    ------------------------------------------------

 NO OUTPUT CONTROL FOR STRESS PERIOD   23   TIME STEP   10
 
 SOLVING FOR HEAD 
                                                   Max.-Head-Change                         Max.-Flux-Residual
  Residual-Control   Outer-Iter.   Inner-Iter.     Column Row Layer    Maximum-Head-Change  Column Row Layer    Maximum-Flux-Residual          L2-NORM 
          0                 1           2             4    7     1       0.5798889145E-01       4    7    1         0.3053169371E+01      0.6331126971E+01
          0                 2           2             4    7     1      -0.5645940168E-02       4    7    1        -0.3057118806E+00      0.6331484563E+00
          0                 3           2             4    7     1       0.3844670265E-03       4    7    1         0.2139980339E-01      0.4432036506E-01
          0                 4           1             4    7     1      -0.1529830520E-04       4    7    1        -0.8752533467E-03      0.1812697528E-02

    ------------------------------------------------
       NWT REQUIRED            4 OUTER ITERATIONS 
       AND A TOTAL OF          7 INNER ITERATIONS.
    ------------------------------------------------

 NO OUTPUT CONTROL FOR STRESS PERIOD   23   TIME STEP   11
 
 SOLVING FOR HEAD 
                                                   Max.-Head-Change                         Max.-Flux-Residual
  Residual-Control   Outer-Iter.   Inner-Iter.     Column Row Layer    Maximum-Head-Change  Column Row Layer    Maximum-Flux-Residual          L2-NORM 
          0                 1           2             4    7     1       0.5719641612E-01       4    7    1         0.3012682214E+01      0.6226463477E+01
          0                 2           2             4    7     1      -0.5563753444E-02       4    7    1        -0.3012721110E+00      0.6226656678E+00
          0                 3           2             4    7     1       0.3788704254E-03       4    7    1         0.2108902009E-01      0.4358653546E-01
          0                 4           1             4    7     1      -0.1507561124E-04       4    7    1        -0.8625422902E-03      0.1782691487E-02

    ------------------------------------------------
       NWT REQUIRED            4 OUTER ITERATIONS 
       AND A TOTAL OF          7 INNER ITERATIONS.
    ------------------------------------------------

 NO OUTPUT CONTROL FOR STRESS PERIOD   23   TIME STEP   12
 
 SOLVING FOR HEAD 
                                                   Max.-Head-Change                         Max.-Flux-Residual
  Residual-Control   Outer-Iter.   Inner-Iter.     Column Row Layer    Maximum-Head-Change  Column Row Layer    Maximum-Flux-Residual          L2-NORM 
          0                 1           2             4    7     1       0.5641494748E-01       4    7    1         0.2971778398E+01      0.6124728649E+01
          0                 2           2             4    7     1      -0.5487692419E-02       4    7    1        -0.2971816807E+00      0.6124739852E+00
          0                 3           2             4    7     1       0.3736909584E-03       4    7    1         0.2080269029E-01      0.4287313578E-01
          0                 4           1             4    7     1      -0.1486951556E-04       4    7    1        -0.8508313922E-03      0.1753512685E-02

    ------------------------------------------------
       NWT REQUIRED            4 OUTER ITERATIONS 
       AND A TOTAL OF          7 INNER ITERATIONS.
    ------------------------------------------------

 NO OUTPUT CONTROL FOR STRESS PERIOD   23   TIME STEP   13
 
 SOLVING FOR HEAD 
                                                   Max.-Head-Change                         Max.-Flux-Residual
  Residual-Control   Outer-Iter.   Inner-Iter.     Column Row Layer    Maximum-Head-Change  Column Row Layer    Maximum-Flux-Residual          L2-NORM 
          0                 1           2             4    7     1       0.5563981702E-01       4    7    1         0.2931175789E+01      0.6025833187E+01
          0                 2           2             4    7     1      -0.5412292600E-02       4    7    1        -0.2931213673E+00      0.6025845587E+00
          0                 3           2             4    7     1       0.3685565173E-03       4    7    1         0.2051846872E-01      0.4218086881E-01
          0                 4           1             4    7     1      -0.1466521093E-04       4    7    1        -0.8392067007E-03      0.1725197647E-02

    ------------------------------------------------
       NWT REQUIRED            4 OUTER ITERATIONS 
       AND A TOTAL OF          7 INNER ITERATIONS.
    ------------------------------------------------

 NO OUTPUT CONTROL FOR STRESS PERIOD   23   TIME STEP   14
 
 SOLVING FOR HEAD 
                                                   Max.-Head-Change                         Max.-Flux-Residual
  Residual-Control   Outer-Iter.   Inner-Iter.     Column Row Layer    Maximum-Head-Change  Column Row Layer    Maximum-Flux-Residual          L2-NORM 
          0                 1           2             4    7     1       0.5487155442E-01       4    7    1         0.2890906665E+01      0.5929688057E+01
          0                 2           2             4    7     1      -0.5337560788E-02       4    7    1        -0.2890943991E+00      0.5929701647E+00
          0                 3           2             4    7     1       0.3634675662E-03       4    7    1         0.2023658136E-01      0.4150788441E-01
          0                 4           1             4    7     1      -0.1446271725E-04       4    7    1        -0.8276775011E-03      0.1697668679E-02

    ------------------------------------------------
       NWT REQUIRED            4 OUTER ITERATIONS 
       AND A TOTAL OF          7 INNER ITERATIONS.
    ------------------------------------------------

 NO OUTPUT CONTROL FOR STRESS PERIOD   23   TIME STEP   15
 
 SOLVING FOR HEAD 
                                                   Max.-Head-Change                         Max.-Flux-Residual
  Residual-Control   Outer-Iter.   Inner-Iter.     Column Row Layer    Maximum-Head-Change  Column Row Layer    Maximum-Flux-Residual          L2-NORM 
          0                 1           2             4    7     1       0.5411041126E-01       4    7    1         0.2850986340E+01      0.5836154278E+01
          0                 2           2             4    7     1      -0.5263521463E-02       4    7    1        -0.2851023081E+00      0.5836168714E+00
          0                 3           2             4    7     1       0.3584257709E-03       4    7    1         0.1995713543E-01      0.4085315947E-01
          0                 4           1             4    7     1      -0.1426209912E-04       4    7    1        -0.8162481422E-03      0.1670894356E-02

    ------------------------------------------------
       NWT REQUIRED            4 OUTER ITERATIONS 
       AND A TOTAL OF          7 INNER ITERATIONS.
    ------------------------------------------------

 NO OUTPUT CONTROL FOR STRESS PERIOD   23   TIME STEP   16
 
 SOLVING FOR HEAD 
                                                   Max.-Head-Change                         Max.-Flux-Residual
  Residual-Control   Outer-Iter.   Inner-Iter.     Column Row Layer    Maximum-Head-Change  Column Row Layer    Maximum-Flux-Residual          L2-NORM 
          0                 1           2             4    7     1       0.5335687334E-01       4    7    1         0.2811442394E+01      0.5745136207E+01
          0                 2           2             4    7     1      -0.5190221886E-02       4    7    1        -0.2811478527E+00      0.5745151285E+00
          0                 3           2             4    7     1       0.3534343501E-03       4    7    1         0.1968032401E-01      0.4021604230E-01
          0                 4           1             4    7     1      -0.1406348570E-04       4    7    1        -0.8049265239E-03      0.1644831357E-02

    ------------------------------------------------
       NWT REQUIRED            4 OUTER ITERATIONS 
       AND A TOTAL OF          7 INNER ITERATIONS.
    ------------------------------------------------

 NO OUTPUT CONTROL FOR STRESS PERIOD   23   TIME STEP   17
 
 SOLVING FOR HEAD 
                                                   Max.-Head-Change                         Max.-Flux-Residual
  Residual-Control   Outer-Iter.   Inner-Iter.     Column Row Layer    Maximum-Head-Change  Column Row Layer    Maximum-Flux-Residual          L2-NORM 
          0                 1           2             4    7     1       0.5261125066E-01       4    7    1         0.2772292747E+01      0.5656529487E+01
          0                 2           2             4    7     1      -0.5117692218E-02       4    7    1        -0.2772328253E+00      0.5656545040E+00
          0                 3           2             4    7     1       0.3484953575E-03       4    7    1         0.1940627256E-01      0.3959579348E-01
          0                 4           1             4    7     1      -0.1386695852E-04       4    7    1        -0.7937178093E-03      0.1619465683E-02

    ------------------------------------------------
       NWT REQUIRED            4 OUTER ITERATIONS 
       AND A TOTAL OF          7 INNER ITERATIONS.
    ------------------------------------------------

 NO OUTPUT CONTROL FOR STRESS PERIOD   23   TIME STEP   18
 
 SOLVING FOR HEAD 
                                                   Max.-Head-Change                         Max.-Flux-Residual
  Residual-Control   Outer-Iter.   Inner-Iter.     Column Row Layer    Maximum-Head-Change  Column Row Layer    Maximum-Flux-Residual          L2-NORM 
          0                 1           2             4    7     1       0.5187367348E-01       4    7    1         0.2733546203E+01      0.5570217808E+01
          0                 2           2             4    7     1      -0.5045945134E-02       4    7    1        -0.2733581068E+00      0.5570233728E+00
          0                 3           2             4    7     1       0.3436096560E-03       4    7    1         0.1913504274E-01      0.3899162756E-01
          0                 4           1             4    7     1      -0.1367255186E-04       4    7    1        -0.7826244846E-03      0.1594761574E-02

    ------------------------------------------------
       NWT REQUIRED            4 OUTER ITERATIONS 
       AND A TOTAL OF          7 INNER ITERATIONS.
    ------------------------------------------------

 NO OUTPUT CONTROL FOR STRESS PERIOD   23   TIME STEP   19
 
 SOLVING FOR HEAD 
                                                   Max.-Head-Change                         Max.-Flux-Residual
  Residual-Control   Outer-Iter.   Inner-Iter.     Column Row Layer    Maximum-Head-Change  Column Row Layer    Maximum-Flux-Residual          L2-NORM 
          0                 1           2             4    7     1       0.5114465851E-01       4    7    1         0.2695231327E+01      0.5486132383E+01
          0                 2           2             4    7     1      -0.4975030902E-02       4    7    1        -0.2695265537E+00      0.5486148466E+00
          0                 3           2             4    7     1       0.3387806693E-03       4    7    1         0.1886683455E-01      0.3840303121E-01
          0                 4           1             4    7     1      -0.1348040206E-04       4    7    1        -0.7716547498E-03      0.1570686264E-02

    ------------------------------------------------
       NWT REQUIRED            4 OUTER ITERATIONS 
       AND A TOTAL OF          7 INNER ITERATIONS.
    ------------------------------------------------

 NO OUTPUT CONTROL FOR STRESS PERIOD   23   TIME STEP   20
 
 SOLVING FOR HEAD 
                                                   Max.-Head-Change                         Max.-Flux-Residual
  Residual-Control   Outer-Iter.   Inner-Iter.     Column Row Layer    Maximum-Head-Change  Column Row Layer    Maximum-Flux-Residual          L2-NORM 
          0                 1           2             4    7     1       0.5042426607E-01       4    7    1         0.2657353099E+01      0.5404169141E+01
          0                 2           2             4    7     1      -0.4904955393E-02       4    7    1        -0.2657386647E+00      0.5404185343E+00
          0                 3           2             4    7     1       0.3340087964E-03       4    7    1         0.1860168282E-01      0.3782928057E-01
          0                 4           1             4    7     1      -0.1329052487E-04       4    7    1        -0.7608100432E-03      0.1547214478E-02

    ------------------------------------------------
       NWT REQUIRED            4 OUTER ITERATIONS 
       AND A TOTAL OF          7 INNER ITERATIONS.
    ------------------------------------------------

 NO OUTPUT CONTROL FOR STRESS PERIOD   23   TIME STEP   21
 
 SOLVING FOR HEAD 
                                                   Max.-Head-Change                         Max.-Flux-Residual
  Residual-Control   Outer-Iter.   Inner-Iter.     Column Row Layer    Maximum-Head-Change  Column Row Layer    Maximum-Flux-Residual          L2-NORM 
          0                 1           2             4    7     1       0.4971662085E-01       4    7    1         0.2619921918E+01      0.5488470467E+01
          0                 2           2             5    8     1       0.1536646584E-01       5    8    1         0.8556149501E+00      0.9950335379E+00
          0                 3           2             5    8     1       0.6066929761E-02       5    8    1         0.3345175833E+00      0.3364390849E+00
          0                 4           1             5    8     1       0.2395322467E-02       5    8    1         0.1322797671E+00      0.1322861794E+00
          0                 5           1             5    8     1       0.9457123252E-03       5    8    1         0.5221776239E-01      0.5221831392E-01
          0                 6           1             5    8     1       0.3733826431E-03       5    8    1         0.2061677177E-01      0.2061693768E-01
          0                 7           1             5    8     1       0.1474175562E-03       5    8    1         0.8139823975E-02      0.8139891341E-02
          0                 8           1             5    8     1       0.5820285568E-04       5    8    1         0.3213735960E-02      0.3213762578E-02

    ------------------------------------------------
       NWT REQUIRED            8 OUTER ITERATIONS 
       AND A TOTAL OF         11 INNER ITERATIONS.
    ------------------------------------------------

 NO OUTPUT CONTROL FOR STRESS PERIOD   23   TIME STEP   22
 
 SOLVING FOR HEAD 
                                                   Max.-Head-Change                         Max.-Flux-Residual
  Residual-Control   Outer-Iter.   Inner-Iter.     Column Row Layer    Maximum-Head-Change  Column Row Layer    Maximum-Flux-Residual          L2-NORM 
          0                 1           2             5    8     1       0.2113590504E+00       5    8    1         0.1160031747E+02      0.1264636632E+02
          0                 2           2             5    8     1       0.8357684080E-01       5    8    1         0.4619588470E+01      0.4647152374E+01
          0                 3           2             5    8     1       0.3302203807E-01       5    8    1         0.1821895730E+01      0.1822276231E+01
          0                 4           2             5    8     1       0.1304737168E-01       5    8    1         0.7200610621E+00      0.7200632128E+00
          0                 5           1             5    8     1       0.5155164942E-02       5    8    1         0.2844946282E+00      0.2844958731E+00
          0                 6           1             5    8     1       0.2036865014E-02       5    8    1         0.1124077806E+00      0.1124082311E+00
          0                 7           1             5    8     1       0.8047889264E-03       5    8    1         0.4441358562E-01      0.4441376513E-01
          0                 8           1             5    8     1       0.3179814312E-03       5    8    1         0.1754832803E-01      0.1754839886E-01
          0                 9           1             5    8     1       0.1256381507E-03       5    8    1         0.6933547968E-02      0.6933575949E-02
          0                10           1             5    8     1       0.4964109071E-04       5    8    1         0.2739525336E-02      0.2739536521E-02

    ------------------------------------------------
       NWT REQUIRED           10 OUTER ITERATIONS 
       AND A TOTAL OF         14 INNER ITERATIONS.
    ------------------------------------------------

 NO OUTPUT CONTROL FOR STRESS PERIOD   23   TIME STEP   23
 
 SOLVING FOR HEAD 
                                                   Max.-Head-Change                         Max.-Flux-Residual
  Residual-Control   Outer-Iter.   Inner-Iter.     Column Row Layer    Maximum-Head-Change  Column Row Layer    Maximum-Flux-Residual          L2-NORM 
          0                 1           2             5    8     1       0.1905207485E+00       5    8    1         0.1042901924E+02      0.1167395656E+02
          0                 2           2             5    8     1       0.6635480770E-01       5    8    1         0.3670781379E+01      0.3708066019E+01
          0                 3           2             5    8     1       0.2171007768E-02       5    8    1         0.1191287856E+00      0.1252058833E+00
          0                 4           1             5    8     1       0.7104051917E-04       5    8    1         0.3954581078E-02      0.4269650279E-02

    ------------------------------------------------
       NWT REQUIRED            4 OUTER ITERATIONS 
       AND A TOTAL OF          7 INNER ITERATIONS.
    ------------------------------------------------

 NO OUTPUT CONTROL FOR STRESS PERIOD   23   TIME STEP   24
 
 SOLVING FOR HEAD 
                                                   Max.-Head-Change                         Max.-Flux-Residual
  Residual-Control   Outer-Iter.   Inner-Iter.     Column Row Layer    Maximum-Head-Change  Column Row Layer    Maximum-Flux-Residual          L2-NORM 
          0                 1           2             4    7     1       0.4832204229E-01       4    7    1         0.2534442224E+01      0.5422976131E+01
          0                 2           2             4    7     1      -0.4700448462E-02       4    7    1        -0.2534460835E+00      0.5422437375E+00
          0                 3           2             4    7     1       0.3200828474E-03       4    7    1         0.1774121591E-01      0.3795707023E-01
          0                 4           1             4    7     1      -0.1273639708E-04       4    7    1        -0.7256168205E-03      0.1552444607E-02

    ------------------------------------------------
       NWT REQUIRED            4 OUTER ITERATIONS 
       AND A TOTAL OF          7 INNER ITERATIONS.
    ------------------------------------------------

 NO OUTPUT CONTROL FOR STRESS PERIOD   23   TIME STEP   25
 
 SOLVING FOR HEAD 
                                                   Max.-Head-Change                         Max.-Flux-Residual
  Residual-Control   Outer-Iter.   Inner-Iter.     Column Row Layer    Maximum-Head-Change  Column Row Layer    Maximum-Flux-Residual          L2-NORM 
          0                 1           2             4    7     1       0.4783650482E-01       4    7    1         0.2510700792E+01      0.5291298937E+01
          0                 2           2             4    7     1      -0.4653217365E-02       4    7    1        -0.2510721110E+00      0.5291308912E+00
          0                 3           2             4    7     1       0.3168665600E-03       4    7    1         0.1757503614E-01      0.3703916736E-01
          0                 4           1             4    7     1      -0.1260841836E-04       4    7    1        -0.7188200775E-03      0.1514903822E-02

    ------------------------------------------------
       NWT REQUIRED            4 OUTER ITERATIONS 
       AND A TOTAL OF          7 INNER ITERATIONS.
    ------------------------------------------------

 NO OUTPUT CONTROL FOR STRESS PERIOD   23   TIME STEP   26
 
 SOLVING FOR HEAD 
                                                   Max.-Head-Change                         Max.-Flux-Residual
  Residual-Control   Outer-Iter.   Inner-Iter.     Column Row Layer    Maximum-Head-Change  Column Row Layer    Maximum-Flux-Residual          L2-NORM 
          0                 1           2             4    7     1       0.4732686318E-01       4    7    1         0.2485468436E+01      0.5170062757E+01
          0                 2           2             4    7     1      -0.4603645154E-02       4    7    1        -0.2485490116E+00      0.5170074600E+00
          0                 3           2             4    7     1       0.3134908562E-03       4    7    1         0.1739841781E-01      0.3619052370E-01
          0                 4           1             4    7     1      -0.1247409622E-04       4    7    1        -0.7115963799E-03      0.1480202435E-02

    ------------------------------------------------
       NWT REQUIRED            4 OUTER ITERATIONS 
       AND A TOTAL OF          7 INNER ITERATIONS.
    ------------------------------------------------

 NO OUTPUT CONTROL FOR STRESS PERIOD   23   TIME STEP   27
 
 SOLVING FOR HEAD 
                                                   Max.-Head-Change                         Max.-Flux-Residual
  Residual-Control   Outer-Iter.   Inner-Iter.     Column Row Layer    Maximum-Head-Change  Column Row Layer    Maximum-Flux-Residual          L2-NORM 
          0                 1           2             4    7     1       0.4679738087E-01       4    7    1         0.2458993364E+01      0.5057989333E+01
          0                 2           2             4    7     1      -0.4552142546E-02       4    7    1        -0.2459016110E+00      0.5058002539E+00
          0                 3           2             4    7     1       0.3099837042E-03       4    7    1         0.1721309869E-01      0.3540602177E-01
          0                 4           1             4    7     1      -0.1233454315E-04       4    7    1        -0.7040168198E-03      0.1448108606E-02

    ------------------------------------------------
       NWT REQUIRED            4 OUTER ITERATIONS 
       AND A TOTAL OF          7 INNER ITERATIONS.
    ------------------------------------------------

 NO OUTPUT CONTROL FOR STRESS PERIOD   23   TIME STEP   28
 
 SOLVING FOR HEAD 
                                                   Max.-Head-Change                         Max.-Flux-Residual
  Residual-Control   Outer-Iter.   Inner-Iter.     Column Row Layer    Maximum-Head-Change  Column Row Layer    Maximum-Flux-Residual          L2-NORM 
          0                 1           2             4    7     1       0.4625159671E-01       4    7    1         0.2431482295E+01      0.4953933233E+01
          0                 2           2             4    7     1      -0.4499053834E-02       4    7    1        -0.2431505854E+00      0.4953947367E+00
          0                 3           2             4    7     1       0.3063685482E-03       4    7    1         0.1702052605E-01      0.3467763413E-01
          0                 4           1             4    7     1      -0.1219069283E-04       4    7    1        -0.6961405993E-03      0.1418317544E-02

    ------------------------------------------------
       NWT REQUIRED            4 OUTER ITERATIONS 
       AND A TOTAL OF          7 INNER ITERATIONS.
    ------------------------------------------------

 NO OUTPUT CONTROL FOR STRESS PERIOD   23   TIME STEP   29
 
 SOLVING FOR HEAD 
                                                   Max.-Head-Change                         Max.-Flux-Residual
  Residual-Control   Outer-Iter.   Inner-Iter.     Column Row Layer    Maximum-Head-Change  Column Row Layer    Maximum-Flux-Residual          L2-NORM 
          0                 1           2             4    7     1       0.4569277194E-01       4    7    1         0.2403125990E+01      0.4856882360E+01
          0                 2           2             4    7     1      -0.4444696303E-02       4    7    1        -0.2403150144E+00      0.4856897040E+00
          0                 3           2             4    7     1       0.3026669930E-03       4    7    1         0.1682203542E-01      0.3399827812E-01
          0                 4           1             4    7     1      -0.1204340468E-04       4    7    1        -0.6880223209E-03      0.1390533394E-02

    ------------------------------------------------
       NWT REQUIRED            4 OUTER ITERATIONS 
       AND A TOTAL OF          7 INNER ITERATIONS.
    ------------------------------------------------

 NO OUTPUT CONTROL FOR STRESS PERIOD   23   TIME STEP   30



 STREAM LISTING     PERIOD     23   STEP       30

 LAYER ROW COL. STREAM  RCH.  FLOW INTO     FLOW TO   FLOW OUT OF   OVRLND.     DIRECT     STREAM       STREAM     STREAM     STREAM   STREAMBED  STREAMBED
                SEG.NO.  NO.  STRM. RCH.    AQUIFER    STRM. RCH.    RUNOFF     PRECIP       ET          HEAD       DEPTH      WIDTH   CONDCTNC.   GRADIENT

   1    1    1     1     1    8.2501E+00  1.3178E-01   8.1183E+00  0.000E+00  0.000E+00  0.000E+00  1.09389E+03  8.424E-01  7.622E+00  3.430E-02  1.281E+00
   1    2    2     1     2    8.1183E+00  2.0241E-01   7.9159E+00  0.000E+00  0.000E+00  0.000E+00  1.08890E+03  8.367E-01  7.537E+00  5.276E-02  1.279E+00
   1    3    3     1     3    7.9159E+00  1.7099E-01   7.7449E+00  0.000E+00  0.000E+00  0.000E+00  1.08325E+03  8.302E-01  7.440E+00  4.464E-02  1.277E+00
   1    3    4     1     4    7.7449E+00  1.5612E-01   7.5888E+00  0.000E+00  0.000E+00  0.000E+00  1.07823E+03  8.244E-01  7.355E+00  4.082E-02  1.275E+00
   1    4    5     2     1    5.5888E+00  2.7178E-01   5.3170E+00  0.000E+00  0.000E+00  0.000E+00  1.07242E+03  4.843E-01  1.200E+01  7.800E-02  1.161E+00
   1    5    6     2     2    5.3170E+00  2.0828E-01   5.1088E+00  0.000E+00  0.000E+00  0.000E+00  1.06698E+03  4.714E-01  1.200E+01  6.000E-02  1.157E+00
   1    6    6     2     3    5.1088E+00  2.0760E-01   4.9012E+00  0.000E+00  0.000E+00  0.000E+00  1.06225E+03  4.600E-01  1.200E+01  6.000E-02  1.153E+00
   1    7    6     2     4    4.9012E+00  2.0691E-01   4.6943E+00  0.000E+00  0.000E+00  0.000E+00  1.05752E+03  4.485E-01  1.200E+01  6.000E-02  1.150E+00
   1    8    6     2     5    4.6943E+00  2.0621E-01   4.4880E+00  0.000E+00  0.000E+00  0.000E+00  1.05280E+03  4.368E-01  1.200E+01  6.000E-02  1.146E+00
   1    3    5     3     1    2.0000E+00  2.8252E-01   1.7175E+00  0.000E+00  0.000E+00  0.000E+00  1.07555E+03  1.909E+00  9.636E+00  7.227E-02  1.955E+00
   1    3    6     3     2    1.7175E+00  2.4905E-01   1.4684E+00  0.000E+00  0.000E+00  0.000E+00  1.07264E+03  1.727E+00  8.909E+00  6.682E-02  1.864E+00
   1    3    7     3     3    1.4684E+00  1.9718E-01   1.2712E+00  0.000E+00  0.000E+00  0.000E+00  1.06987E+03  1.555E+00  8.218E+00  5.547E-02  1.777E+00
   1    4    8     3     4    1.2712E+00  2.2567E-01   1.0456E+00  0.000E+00  0.000E+00  0.000E+00  1.06682E+03  1.364E+00  7.455E+00  6.709E-02  1.682E+00
   1    5    8     3     5    1.0456E+00  1.5790E-01   8.8768E-01  0.000E+00  0.000E+00  0.000E+00  1.06362E+03  1.164E+00  6.655E+00  4.991E-02  1.582E+00
   1    6    8     3     6    8.8768E-01  5.5980E-02   8.3170E-01  0.000E+00  0.000E+00  0.000E+00  1.06158E+03  1.036E+00  6.145E+00  1.844E-02  1.518E+00
   1    5   10     4     1    1.0000E+01  9.0919E-02   9.9091E+00  0.000E+00  0.000E+00  0.000E+00  1.07836E+03  6.368E-01  1.000E+01  2.500E-02  1.212E+00
   1    5    9     4     2    9.9091E+00  1.8158E-01   9.7275E+00  0.000E+00  0.000E+00  0.000E+00  1.07154E+03  6.315E-01  1.000E+01  5.000E-02  1.211E+00
   1    6    8     4     3    9.7275E+00  1.2689E-01   9.6006E+00  0.000E+00  0.000E+00  0.000E+00  1.06381E+03  6.256E-01  1.000E+01  3.500E-02  1.209E+00
   1    6    8     5     1    1.0432E+01  2.2686E-01   1.0205E+01  0.000E+00  0.000E+00  0.000E+00  1.05868E+03  6.790E-01  1.542E+01  6.166E-02  1.226E+00
   1    7    7     5     2    1.0205E+01  2.7894E-01   9.9265E+00  0.000E+00  0.000E+00  0.000E+00  1.05417E+03  6.732E-01  1.519E+01  7.594E-02  1.224E+00
   1    8    7     5     3    9.9265E+00  1.9221E-01   9.7343E+00  0.000E+00  0.000E+00  0.000E+00  1.04992E+03  6.676E-01  1.497E+01  5.241E-02  1.223E+00
   1    8    6     5     4    9.7343E+00  1.3577E-01   9.5985E+00  0.000E+00  0.000E+00  0.000E+00  1.04691E+03  6.637E-01  1.482E+01  3.706E-02  1.221E+00
   1    9    6     6     1    1.4087E+01  2.3167E-01   1.3855E+01  0.000E+00  0.000E+00  0.000E+00  1.04359E+03  8.612E-01  1.200E+01  6.000E-02  1.287E+00
   1   10    7     6     2    1.3855E+01  2.3116E-01   1.3624E+01  0.000E+00  0.000E+00  0.000E+00  1.03903E+03  8.526E-01  1.200E+01  6.000E-02  1.284E+00
   1   11    7     6     3    1.3624E+01  2.3064E-01   1.3393E+01  0.000E+00  0.000E+00  0.000E+00  1.03448E+03  8.440E-01  1.200E+01  6.000E-02  1.281E+00
   1   12    7     6     4    1.3393E+01  2.3012E-01   1.3163E+01  0.000E+00  0.000E+00  0.000E+00  1.02993E+03  8.353E-01  1.200E+01  6.000E-02  1.278E+00
   1   13    7     6     5    1.3163E+01  6.2897E-04   1.3162E+01  0.000E+00  0.000E+00  0.000E+00  1.02674E+03  8.310E-01  1.200E+01  2.400E-02  8.736E-03
   1   14    9     7     1    1.5000E+02  1.3754E+00   1.4862E+02  0.000E+00  0.000E+00  0.000E+00  1.03987E+03  2.288E+00  5.529E+01  5.593E-01  8.197E-01
   1   13    8     7     2    1.4862E+02  1.9527E+00   1.4667E+02  0.000E+00  0.000E+00  0.000E+00  1.03478E+03  2.279E+00  5.525E+01  6.147E-01  1.059E+00
   1   13    7     7     3    1.4667E+02  1.6610E+00   1.4501E+02  0.000E+00  0.000E+00  0.000E+00  1.02969E+03  2.269E+00  5.521E+01  5.584E-01  9.915E-01
   1   13    6     8     1    1.5817E+02  1.0437E+00   1.5713E+02  0.000E+00  0.000E+00  0.000E+00  1.02474E+03  2.870E+00  4.161E+01  4.241E-01  8.204E-01
   1   13    5     8     2    1.5713E+02  2.9906E-01   1.5683E+02  0.000E+00  0.000E+00  0.000E+00  1.01849E+03  2.865E+00  4.155E+01  4.234E-01  2.355E-01
   1   13    4     8     3    1.5683E+02 -1.9978E+00   1.5883E+02  0.000E+00  0.000E+00  0.000E+00  1.01225E+03  2.871E+00  4.163E+01  4.242E+00 -1.570E-01
   1   13    3     8     4    1.5883E+02 -3.4286E+00   1.6226E+02  0.000E+00  0.000E+00  0.000E+00  1.00601E+03  2.890E+00  4.190E+01  4.270E+00 -2.677E-01
   1   13    2     8     5    1.6226E+02 -2.5169E+00   1.6477E+02  0.000E+00  0.000E+00  0.000E+00  9.99784E+02  2.909E+00  4.219E+01  4.299E+00 -1.952E-01
   1   13    1     8     6    1.6477E+02 -1.9559E+00   1.6673E+02  0.000E+00  0.000E+00  0.000E+00  9.94799E+02  2.924E+00  4.240E+01  2.593E+00 -2.515E-01
   1    8    6     9     1    0.0000E+00  0.0000E+00   0.0000E+00  0.000E+00  0.000E+00  0.000E+00  1.07875E+03  0.000E+00  4.000E+00  0.000E+00  1.000E+00
   1    8    5     9     2    0.0000E+00  0.0000E+00   0.0000E+00  0.000E+00  0.000E+00  0.000E+00  1.07825E+03  0.000E+00  4.000E+00  0.000E+00  1.000E+00





UNSATURATED ZONE PACKAGE VOLUMETRIC BUDGET FOR  TIME STEP    30 STRESS PERIOD   23
  ------------------------------------------------------------------------------



     CUMULATIVE VOLUMES      L**3       RATES FOR THIS TIME STEP      L**3/T
     ------------------                 ------------------------

           IN:                                      IN:
           ---                                      ---
        INFILTRATION =  1221350398.5627          INFILTRATION =           4.4075

          OUT:                                     OUT:
          ----                                     ----
              UZF ET =   995005389.9041                UZF ET =           3.7800
        UZF RECHARGE =     3440987.1624          UZF RECHARGE =       0.0000E+00

            IN - OUT =   222904021.4963              IN - OUT =           0.6275

          STORAGE:                                 STORAGE:
          --------                                 --------
      STORAGE CHANGE =   222904006.4800        STORAGE CHANGE =           0.6275

 PERCENT DISCREPANCY IS DIFFERENCE BETWEEN IN-OUT MINUS CHANGE IN STORAGE
 DIVIDED BY THE AVERAGE OF IN AND OUT TIMES 100

 PERCENT DISCREPANCY =           0.00     PERCENT DISCREPANCY =           0.00






1
  VOLUMETRIC BUDGET FOR AGRICULTURAL FIELDS AT  END OF TIME STEP   30, STRESS PERIOD  23
  ------------------------------------------------------------------------------

     CUMULATIVE VOLUMES      L**3       RATES FOR THIS TIME STEP      L**3/T
     ------------------                 ------------------------

           IN:                                      IN:
           ---                                      ---
               AG WELLS  =   599544832.0000                 AG WELLS  =           0.0000
      DIVERSION SEGMENTS =   366911456.0000        DIVERSION SEGMENTS =           0.0000
           GW IRRIGATION =           0.0000             GW IRRIGATION =           0.0000
           SW IRRIGATION =           0.0000             SW IRRIGATION =           0.0000
        SYSTEM LOSSES GW =           0.0000          SYSTEM LOSSES GW =           0.0000
        SYSTEM LOSSES SW =           0.0000          SYSTEM LOSSES SW =           0.0000

                TOTAL IN =   966456320.0000                  TOTAL IN =           0.0000

          OUT:                                     OUT:
          ----                                     ----
               AG WELLS  =           0.0000                 AG WELLS  =           0.0000
      DIVERSION SEGMENTS =           0.0000        DIVERSION SEGMENTS =           0.0000
           GW IRRIGATION =   599544832.0000             GW IRRIGATION =           0.0000
           SW IRRIGATION =   366918816.0000             SW IRRIGATION =           0.0000
        SYSTEM LOSSES GW =           0.0000          SYSTEM LOSSES GW =           0.0000
        SYSTEM LOSSES SW =           0.0000          SYSTEM LOSSES SW =           0.0000

               TOTAL OUT =   966463616.0000                 TOTAL OUT =           0.0000

                IN - OUT =       -7296.0000                  IN - OUT =           0.0000

     PERCENT DISCREPANCY =          -0.00         PERCENT DISCREPANCY =           0.00



1
  VOLUMETRIC BUDGET FOR ENTIRE MODEL AT END OF TIME STEP   30, STRESS PERIOD  23
  ------------------------------------------------------------------------------

     CUMULATIVE VOLUMES      L**3       RATES FOR THIS TIME STEP      L**3/T
     ------------------                 ------------------------

           IN:                                      IN:
           ---                                      ---
             STORAGE     =   836295104.0000               STORAGE     =          10.7503
       CONSTANT HEAD     =           0.0000         CONSTANT HEAD     =           0.0000
     HEAD DEP BOUNDS     =    16692360.0000       HEAD DEP BOUNDS     =           0.2885
      STREAM LEAKAGE     =   680926592.0000        STREAM LEAKAGE     =          11.4197
        UZF RECHARGE     =     3440987.5000          UZF RECHARGE     =           0.0000
               GW ET     =           0.0000                 GW ET     =           0.0000
     SURFACE LEAKAGE     =           0.0000       SURFACE LEAKAGE     =           0.0000
           AG WELLS      =           0.0000             AG WELLS      =           0.0000

                TOTAL IN =  1537355136.0000                  TOTAL IN =          22.4584

          OUT:                                     OUT:
          ----                                     ----
             STORAGE     =   329300544.0000               STORAGE     =          12.2722
       CONSTANT HEAD     =           0.0000         CONSTANT HEAD     =           0.0000
     HEAD DEP BOUNDS     =    16684585.0000       HEAD DEP BOUNDS     =           0.2870
      STREAM LEAKAGE     =   591830528.0000        STREAM LEAKAGE     =           9.8991
        UZF RECHARGE     =           0.0000          UZF RECHARGE     =           0.0000
               GW ET     =           0.0000                 GW ET     =           0.0000
     SURFACE LEAKAGE     =           0.0000       SURFACE LEAKAGE     =           0.0000
           AG WELLS      =   599544832.0000             AG WELLS      =           0.0000

               TOTAL OUT =  1537360512.0000                 TOTAL OUT =          22.4584

                IN - OUT =       -5376.0000                  IN - OUT =       9.5367E-06

     PERCENT DISCREPANCY =          -0.00         PERCENT DISCREPANCY =           0.00






         TIME SUMMARY AT END OF TIME STEP   30 IN STRESS PERIOD   23
                    SECONDS     MINUTES      HOURS       DAYS        YEARS
                    -----------------------------------------------------------
   TIME STEP LENGTH  87667.      1461.1      24.352      1.0147     2.77799E-03
 STRESS PERIOD TIME 2.63000E+06  43833.      730.56      30.440     8.33397E-02
         TOTAL TIME 5.79467E+07 9.65778E+05  16096.      670.68      1.8362    
1
1
                            STRESS PERIOD NO.   24, LENGTH =   2630000.    
                            -----------------------------------------------

                              NUMBER OF TIME STEPS =    30

                               MULTIPLIER FOR DELT =     1.000

                            INITIAL TIME STEP SIZE =   87666.66    

 REUSING NON-PARAMETER GHB CELLS FROM LAST STRESS PERIOD

      2 GHB CELLS

 REUSING STREAM SEGMENT DATA FROM LAST STRESS PERIOD



            AREAL INFILTRATION RATE
 READING ON UNIT   19 WITH FORMAT: (10F4.0)            

            1           2           3           4           5           6           7           8           9          10
 ........................................................................................................................
   1   1.2000E-09   0.000       0.000       0.000       0.000       0.000       0.000       0.000       0.000       0.000    
   2   2.1000E-09  2.0000E-09  8.0000E-10  8.5000E-09   0.000       0.000       0.000       0.000       0.000       0.000    
   3   5.0000E-10  1.1000E-09  8.8000E-09  5.5000E-09   0.000       0.000       0.000       0.000       0.000       0.000    
   4   8.5000E-09  1.1000E-09  1.1000E-09  1.1000E-09  2.0000E-09   0.000       0.000       0.000       0.000       0.000    
   5   8.5000E-09  1.1000E-09  1.1000E-09  1.1000E-09  1.1000E-09   0.000       0.000       0.000       0.000       0.000    
   6   8.5000E-09  5.2000E-09  2.1000E-09  1.1000E-09  1.5000E-09   0.000       0.000       0.000       0.000       0.000    
   7   8.5000E-09  5.2000E-09  2.1000E-09  1.2000E-09  2.0000E-09   0.000       0.000       0.000       0.000       0.000    
   8   5.0000E-10  5.2000E-09  2.1000E-09  1.2000E-09  5.0000E-09   0.000       0.000       0.000       0.000       0.000    
   9   5.0000E-10  5.2000E-09  2.1000E-09  1.2000E-09  5.0000E-09   0.000       0.000       0.000       0.000       0.000    
  10   5.0000E-10  5.2000E-09  2.1000E-09  1.2000E-09  5.8000E-09   0.000       0.000       0.000       0.000       0.000    
  11   1.0000E-10  1.1000E-09  1.1000E-09  1.2000E-09  5.0000E-09   0.000       0.000       0.000       0.000       0.000    
  12   1.1000E-09  1.1000E-09  1.1000E-09  1.1000E-09  2.0000E-09   0.000       0.000       0.000       0.000       0.000    
  13   1.1000E-09  2.2000E-09  2.2000E-09  2.1000E-09  1.0000E-09   0.000       0.000       0.000       0.000       0.000    
  14   2.0000E-10  5.5000E-09  5.5000E-09  5.2000E-09  1.0000E-09   0.000       0.000       0.000       0.000       0.000    
  15    0.000      8.8000E-09  8.8000E-09   0.000       0.000       0.000       0.000       0.000       0.000       0.000    

                  ET RATE =  5.000000E-10

 USING ET EXTINCTION DEPTH FROM PREVIOUS STRESS PERIOD. CURRENT PERIOD IS:      24

 USING EXTINCTION WATER CONTENT FROM PREVIOUS STRESS PERIOD. CURRENT PERIOD IS:      24

 USING AIR ENTRY PRESSURE FROM PREVIOUS STRESS PERIOD. CURRENT PERIOD IS:      24

 USING ROOT PRESSURE HEAD FROM PREVIOUS STRESS PERIOD. CURRENT PERIOD IS:      24

 USING ROOT ACTIVITY FROM PREVIOUS STRESS PERIOD. CURRENT PERIOD IS:      24

 PROCESSING AG STRESS PERIOD DATA

 READING AG STRESS PERIOD DATA

 READING IRRIGATION SEGMENT

 READING IRRIGATION WELL

 READING SUPPLEMENTAL WELL

 END PROCESSING AG STRESS PERIOD DATA OPTIONS
 
 SOLVING FOR HEAD 
                                                   Max.-Head-Change                         Max.-Flux-Residual
  Residual-Control   Outer-Iter.   Inner-Iter.     Column Row Layer    Maximum-Head-Change  Column Row Layer    Maximum-Flux-Residual          L2-NORM 
          0                 1           2             4    7     1       0.4512379865E-01       4    7    1         0.2374093536E+01      0.4766254553E+01
          0                 2           2             4    7     1      -0.4389351322E-02       4    7    1        -0.2374118102E+00      0.4766268889E+00
          0                 3           2             4    7     1       0.2988981990E-03       4    7    1         0.1661881065E-01      0.3336387617E-01
          0                 4           1             4    7     1      -0.1189344084E-04       4    7    1        -0.6797104115E-03      0.1364584433E-02

    ------------------------------------------------
       NWT REQUIRED            4 OUTER ITERATIONS 
       AND A TOTAL OF          7 INNER ITERATIONS.
    ------------------------------------------------

 NO OUTPUT CONTROL FOR STRESS PERIOD   24   TIME STEP    1
 
 SOLVING FOR HEAD 
                                                   Max.-Head-Change                         Max.-Flux-Residual
  Residual-Control   Outer-Iter.   Inner-Iter.     Column Row Layer    Maximum-Head-Change  Column Row Layer    Maximum-Flux-Residual          L2-NORM 
          0                 1           2             4    7     1       0.4454709644E-01       4    7    1         0.2344527606E+01      0.4681210559E+01
          0                 2           2             4    7     1      -0.4333254293E-02       4    7    1        -0.2344552423E+00      0.4681223313E+00
          0                 3           2             4    7     1       0.2950781956E-03       4    7    1         0.1641185058E-01      0.3276854487E-01
          0                 4           1             4    7     1      -0.1174143937E-04       4    7    1        -0.6712457307E-03      0.1340235617E-02

    ------------------------------------------------
       NWT REQUIRED            4 OUTER ITERATIONS 
       AND A TOTAL OF          7 INNER ITERATIONS.
    ------------------------------------------------

 NO OUTPUT CONTROL FOR STRESS PERIOD   24   TIME STEP    2
 
 SOLVING FOR HEAD 
                                                   Max.-Head-Change                         Max.-Flux-Residual
  Residual-Control   Outer-Iter.   Inner-Iter.     Column Row Layer    Maximum-Head-Change  Column Row Layer    Maximum-Flux-Residual          L2-NORM 
          0                 1           2             4    7     1       0.4396493562E-01       4    7    1         0.2314560931E+01      0.4600494453E+01
          0                 2           2             4    7     1      -0.4276626089E-02       4    7    1        -0.2314585864E+00      0.4600507087E+00
          0                 3           2             4    7     1       0.2912220237E-03       4    7    1         0.1620208447E-01      0.3220351287E-01
          0                 4           1             4    7     1      -0.1158799892E-04       4    7    1        -0.6626663103E-03      0.1317122795E-02

    ------------------------------------------------
       NWT REQUIRED            4 OUTER ITERATIONS 
       AND A TOTAL OF          7 INNER ITERATIONS.
    ------------------------------------------------

 NO OUTPUT CONTROL FOR STRESS PERIOD   24   TIME STEP    3
 
 SOLVING FOR HEAD 
                                                   Max.-Head-Change                         Max.-Flux-Residual
  Residual-Control   Outer-Iter.   Inner-Iter.     Column Row Layer    Maximum-Head-Change  Column Row Layer    Maximum-Flux-Residual          L2-NORM 
          0                 1           2             4    7     1       0.4337945169E-01       4    7    1         0.2284318502E+01      0.4524010781E+01
          0                 2           2             4    7     1      -0.4219674468E-02       4    7    1        -0.2284343438E+00      0.4524023392E+00
          0                 3           2             4    7     1       0.2873438290E-03       4    7    1         0.1599038738E-01      0.3166813857E-01
          0                 4           1             4    7     1      -0.1143368165E-04       4    7    1        -0.6540078689E-03      0.1295227083E-02

    ------------------------------------------------
       NWT REQUIRED            4 OUTER ITERATIONS 
       AND A TOTAL OF          7 INNER ITERATIONS.
    ------------------------------------------------

 NO OUTPUT CONTROL FOR STRESS PERIOD   24   TIME STEP    4
 
 SOLVING FOR HEAD 
                                                   Max.-Head-Change                         Max.-Flux-Residual
  Residual-Control   Outer-Iter.   Inner-Iter.     Column Row Layer    Maximum-Head-Change  Column Row Layer    Maximum-Flux-Residual          L2-NORM 
          0                 1           2             4    7     1       0.4279226157E-01       4    7    1         0.2253896483E+01      0.4451277382E+01
          0                 2           2             4    7     1      -0.4162556738E-02       4    7    1        -0.2253921324E+00      0.4451289720E+00
          0                 3           2             4    7     1       0.2834543249E-03       4    7    1         0.1577743259E-01      0.3115900108E-01
          0                 4           1             4    7     1      -0.1127891481E-04       4    7    1        -0.6452980087E-03      0.1274417311E-02

    ------------------------------------------------
       NWT REQUIRED            4 OUTER ITERATIONS 
       AND A TOTAL OF          7 INNER ITERATIONS.
    ------------------------------------------------

 NO OUTPUT CONTROL FOR STRESS PERIOD   24   TIME STEP    5
 
 SOLVING FOR HEAD 
                                                   Max.-Head-Change                         Max.-Flux-Residual
  Residual-Control   Outer-Iter.   Inner-Iter.     Column Row Layer    Maximum-Head-Change  Column Row Layer    Maximum-Flux-Residual          L2-NORM 
          0                 1           2             4    7     1       0.4220491120E-01       4    7    1         0.2223385988E+01      0.4381897040E+01
          0                 2           2             4    7     1      -0.4105061452E-02       4    7    1        -0.2223410653E+00      0.4371697403E+00
          0                 3           2             4    7     1       0.2795465412E-03       4    7    1         0.1556385779E-01      0.3059017034E-01
          0                 4           1             4    7     1      -0.1112318378E-04       4    7    1        -0.6365627837E-03      0.1251185952E-02

    ------------------------------------------------
       NWT REQUIRED            4 OUTER ITERATIONS 
       AND A TOTAL OF          7 INNER ITERATIONS.
    ------------------------------------------------

 NO OUTPUT CONTROL FOR STRESS PERIOD   24   TIME STEP    6
 
 SOLVING FOR HEAD 
                                                   Max.-Head-Change                         Max.-Flux-Residual
  Residual-Control   Outer-Iter.   Inner-Iter.     Column Row Layer    Maximum-Head-Change  Column Row Layer    Maximum-Flux-Residual          L2-NORM 
          0                 1           2             4    7     1       0.4161958814E-01       4    7    1         0.2192894165E+01      0.4316051372E+01
          0                 2           2             4    7     1      -0.4048043105E-02       4    7    1        -0.2192918571E+00      0.4305599896E+00
          0                 3           2             4    7     1       0.2756705072E-03       4    7    1         0.1535041335E-01      0.3011104610E-01
          0                 4           1             4    7     1      -0.1096873918E-04       4    7    1        -0.6278328851E-03      0.1231606324E-02

    ------------------------------------------------
       NWT REQUIRED            4 OUTER ITERATIONS 
       AND A TOTAL OF          7 INNER ITERATIONS.
    ------------------------------------------------

 NO OUTPUT CONTROL FOR STRESS PERIOD   24   TIME STEP    7
 
 SOLVING FOR HEAD 
                                                   Max.-Head-Change                         Max.-Flux-Residual
  Residual-Control   Outer-Iter.   Inner-Iter.     Column Row Layer    Maximum-Head-Change  Column Row Layer    Maximum-Flux-Residual          L2-NORM 
          0                 1           2             4    7     1       0.4103707388E-01       4    7    1         0.2162485202E+01      0.4252878928E+01
          0                 2           2             4    7     1      -0.3991389879E-02       4    7    1        -0.2162509294E+00      0.4240829485E+00
          0                 3           2             4    7     1       0.2718143049E-03       4    7    1         0.1513754862E-01      0.2965349565E-01
          0                 4           1             4    7     1      -0.1081524542E-04       4    7    1        -0.6191267184E-03      0.1212891855E-02

    ------------------------------------------------
       NWT REQUIRED            4 OUTER ITERATIONS 
       AND A TOTAL OF          7 INNER ITERATIONS.
    ------------------------------------------------

 NO OUTPUT CONTROL FOR STRESS PERIOD   24   TIME STEP    8
 
 SOLVING FOR HEAD 
                                                   Max.-Head-Change                         Max.-Flux-Residual
  Residual-Control   Outer-Iter.   Inner-Iter.     Column Row Layer    Maximum-Head-Change  Column Row Layer    Maximum-Flux-Residual          L2-NORM 
          0                 1           2             4    7     1       0.4045799316E-01       4    7    1         0.2132216673E+01      0.4192023714E+01
          0                 2           2             4    7     1      -0.3934969467E-02       4    7    1        -0.2132240411E+00      0.4175418469E+00
          0                 3           2             4    7     1       0.2679731658E-03       4    7    1         0.1492566665E-01      0.2919253344E-01
          0                 4           1             4    7     1      -0.1066237497E-04       4    7    1        -0.6104607178E-03      0.1194035581E-02

    ------------------------------------------------
       NWT REQUIRED            4 OUTER ITERATIONS 
       AND A TOTAL OF          7 INNER ITERATIONS.
    ------------------------------------------------

 NO OUTPUT CONTROL FOR STRESS PERIOD   24   TIME STEP    9
 
 SOLVING FOR HEAD 
                                                   Max.-Head-Change                         Max.-Flux-Residual
  Residual-Control   Outer-Iter.   Inner-Iter.     Column Row Layer    Maximum-Head-Change  Column Row Layer    Maximum-Flux-Residual          L2-NORM 
          0                 1           2             4    7     1       0.3988353857E-01       4    7    1         0.2102138787E+01      0.4133171792E+01
          0                 2           2             4    7     1      -0.3879059724E-02       4    7    1        -0.2102162132E+00      0.4113771582E+00
          0                 3           2             4    7     1       0.2641668874E-03       4    7    1         0.1471511898E-01      0.2875791783E-01
          0                 4           1             4    7     1      -0.1051088903E-04       4    7    1        -0.6018493077E-03      0.1178491575E-02

    ------------------------------------------------
       NWT REQUIRED            4 OUTER ITERATIONS 
       AND A TOTAL OF          7 INNER ITERATIONS.
    ------------------------------------------------

 NO OUTPUT CONTROL FOR STRESS PERIOD   24   TIME STEP   10
 
 SOLVING FOR HEAD 
                                                   Max.-Head-Change                         Max.-Flux-Residual
  Residual-Control   Outer-Iter.   Inner-Iter.     Column Row Layer    Maximum-Head-Change  Column Row Layer    Maximum-Flux-Residual          L2-NORM 
          0                 1           2             4    7     1       0.3931427898E-01       4    7    1         0.2072290231E+01      0.4076309594E+01
          0                 2           2             4    7     1      -0.3823658537E-02       4    7    1        -0.2072313153E+00      0.4053903445E+00
          0                 3           2             4    7     1       0.2603951386E-03       4    7    1         0.1450617642E-01      0.2833553721E-01
          0                 4           1             4    7     1      -0.1036078037E-04       4    7    1        -0.5933035427E-03      0.1158978002E-02

    ------------------------------------------------
       NWT REQUIRED            4 OUTER ITERATIONS 
       AND A TOTAL OF          7 INNER ITERATIONS.
    ------------------------------------------------

 NO OUTPUT CONTROL FOR STRESS PERIOD   24   TIME STEP   11
 
 SOLVING FOR HEAD 
                                                   Max.-Head-Change                         Max.-Flux-Residual
  Residual-Control   Outer-Iter.   Inner-Iter.     Column Row Layer    Maximum-Head-Change  Column Row Layer    Maximum-Flux-Residual          L2-NORM 
          0                 1           2             4    7     1       0.3875086493E-01       4    7    1         0.2042710838E+01      0.4021270920E+01
          0                 2           2             4    7     1      -0.3768828947E-02       4    7    1        -0.2042733312E+00      0.3995941435E+00
          0                 3           2             4    7     1       0.2566622179E-03       4    7    1         0.1429911787E-01      0.2792687740E-01
          0                 4           1             4    7     1      -0.1021221926E-04       4    7    1        -0.5848348187E-03      0.1142256239E-02

    ------------------------------------------------
       NWT REQUIRED            4 OUTER ITERATIONS 
       AND A TOTAL OF          7 INNER ITERATIONS.
    ------------------------------------------------

 NO OUTPUT CONTROL FOR STRESS PERIOD   24   TIME STEP   12
 
 SOLVING FOR HEAD 
                                                   Max.-Head-Change                         Max.-Flux-Residual
  Residual-Control   Outer-Iter.   Inner-Iter.     Column Row Layer    Maximum-Head-Change  Column Row Layer    Maximum-Flux-Residual          L2-NORM 
          0                 1           2             4    7     1       0.3819410929E-01       4    7    1         0.2013448926E+01      0.3967898364E+01
          0                 2           2             4    7     1      -0.3714649750E-02       4    7    1        -0.2013470935E+00      0.3939751368E+00
          0                 3           2             4    7     1       0.2529735005E-03       4    7    1         0.1409428157E-01      0.2753081579E-01
          0                 4           1             4    7     1      -0.1006542074E-04       4    7    1        -0.5764570351E-03      0.1126056019E-02

    ------------------------------------------------
       NWT REQUIRED            4 OUTER ITERATIONS 
       AND A TOTAL OF          7 INNER ITERATIONS.
    ------------------------------------------------

 NO OUTPUT CONTROL FOR STRESS PERIOD   24   TIME STEP   13
 
 SOLVING FOR HEAD 
                                                   Max.-Head-Change                         Max.-Flux-Residual
  Residual-Control   Outer-Iter.   Inner-Iter.     Column Row Layer    Maximum-Head-Change  Column Row Layer    Maximum-Flux-Residual          L2-NORM 
          0                 1           2             4    7     1       0.3764419137E-01       4    7    1         0.1984517508E+01      0.3916076030E+01
          0                 2           2             4    7     1      -0.3661138146E-02       4    7    1        -0.1984539038E+00      0.3885235143E+00
          0                 3           2             4    7     1       0.2493301644E-03       4    7    1         0.1389175867E-01      0.2714665800E-01
          0                 4           1             4    7     1      -0.9920429620E-05       4    7    1        -0.5681738126E-03      0.1110341353E-02

    ------------------------------------------------
       NWT REQUIRED            4 OUTER ITERATIONS 
       AND A TOTAL OF          7 INNER ITERATIONS.
    ------------------------------------------------

 NO OUTPUT CONTROL FOR STRESS PERIOD   24   TIME STEP   14
 
 SOLVING FOR HEAD 
                                                   Max.-Head-Change                         Max.-Flux-Residual
  Residual-Control   Outer-Iter.   Inner-Iter.     Column Row Layer    Maximum-Head-Change  Column Row Layer    Maximum-Flux-Residual          L2-NORM 
          0                 1           2             4    7     1       0.3710148855E-01       4    7    1         0.1955940470E+01      0.3865682179E+01
          0                 2           2             4    7     1      -0.3608330623E-02       4    7    1        -0.1955961512E+00      0.3832283122E+00
          0                 3           2             4    7     1       0.2457347020E-03       4    7    1         0.1369171635E-01      0.2677361840E-01
          0                 4           1             4    7     1      -0.9777346276E-05       4    7    1        -0.5599920801E-03      0.1095078219E-02

    ------------------------------------------------
       NWT REQUIRED            4 OUTER ITERATIONS 
       AND A TOTAL OF          7 INNER ITERATIONS.
    ------------------------------------------------

 NO OUTPUT CONTROL FOR STRESS PERIOD   24   TIME STEP   15
 
 SOLVING FOR HEAD 
                                                   Max.-Head-Change                         Max.-Flux-Residual
  Residual-Control   Outer-Iter.   Inner-Iter.     Column Row Layer    Maximum-Head-Change  Column Row Layer    Maximum-Flux-Residual          L2-NORM 
          0                 1           2             4    7     1       0.3656657717E-01       4    7    1         0.1927751968E+01      0.3816636467E+01
          0                 2           2             4    7     1      -0.3556283030E-02       4    7    1        -0.1927772517E+00      0.3780807605E+00
          0                 3           2             4    7     1       0.2421909235E-03       4    7    1         0.1349439376E-01      0.2641138208E-01
          0                 4           1             4    7     1      -0.9636321182E-05       4    7    1        -0.5519215674E-03      0.1080260440E-02

    ------------------------------------------------
       NWT REQUIRED            4 OUTER ITERATIONS 
       AND A TOTAL OF          7 INNER ITERATIONS.
    ------------------------------------------------

 NO OUTPUT CONTROL FOR STRESS PERIOD   24   TIME STEP   16
 
 SOLVING FOR HEAD 
                                                   Max.-Head-Change                         Max.-Flux-Residual
  Residual-Control   Outer-Iter.   Inner-Iter.     Column Row Layer    Maximum-Head-Change  Column Row Layer    Maximum-Flux-Residual          L2-NORM 
          0                 1           2             4    7     1       0.3603955233E-01       4    7    1         0.1899960032E+01      0.3768838469E+01
          0                 2           2             4    7     1      -0.3505004431E-02       4    7    1        -0.1899980085E+00      0.3730588611E+00
          0                 3           2             4    7     1       0.2386994531E-03       4    7    1         0.1329984713E-01      0.2605753744E-01
          0                 4           1             4    7     1      -0.9497379322E-05       4    7    1        -0.5439645902E-03      0.1065790188E-02

    ------------------------------------------------
       NWT REQUIRED            4 OUTER ITERATIONS 
       AND A TOTAL OF          7 INNER ITERATIONS.
    ------------------------------------------------

 NO OUTPUT CONTROL FOR STRESS PERIOD   24   TIME STEP   17
 
 SOLVING FOR HEAD 
                                                   Max.-Head-Change                         Max.-Flux-Residual
  Residual-Control   Outer-Iter.   Inner-Iter.     Column Row Layer    Maximum-Head-Change  Column Row Layer    Maximum-Flux-Residual          L2-NORM 
          0                 1           2             4    7     1       0.3552046754E-01       4    7    1         0.1872569602E+01      0.3722232488E+01
          0                 2           2             4    7     1      -0.3454499915E-02       4    7    1        -0.1872589159E+00      0.3682027977E+00
          0                 3           2             4    7     1       0.2352606372E-03       4    7    1         0.1310811104E-01      0.2571575492E-01
          0                 4           1             4    7     1      -0.9360534627E-05       4    7    1        -0.5361225817E-03      0.1051801815E-02

    ------------------------------------------------
       NWT REQUIRED            4 OUTER ITERATIONS 
       AND A TOTAL OF          7 INNER ITERATIONS.
    ------------------------------------------------

 NO OUTPUT CONTROL FOR STRESS PERIOD   24   TIME STEP   18
 
 SOLVING FOR HEAD 
                                                   Max.-Head-Change                         Max.-Flux-Residual
  Residual-Control   Outer-Iter.   Inner-Iter.     Column Row Layer    Maximum-Head-Change  Column Row Layer    Maximum-Flux-Residual          L2-NORM 
          0                 1           2             4    7     1       0.3500973482E-01       4    7    1         0.1845605330E+01      0.3676745704E+01
          0                 2           2             4    7     1      -0.3404809340E-02       4    7    1        -0.1845624392E+00      0.3634566283E+00
          0                 3           2             4    7     1       0.2318772010E-03       4    7    1         0.1291935805E-01      0.2538181613E-01
          0                 4           1             4    7     1      -0.9225895086E-05       4    7    1        -0.5284025715E-03      0.1038136153E-02

    ------------------------------------------------
       NWT REQUIRED            4 OUTER ITERATIONS 
       AND A TOTAL OF          7 INNER ITERATIONS.
    ------------------------------------------------

 NO OUTPUT CONTROL FOR STRESS PERIOD   24   TIME STEP   19
 
 SOLVING FOR HEAD 
                                                   Max.-Head-Change                         Max.-Flux-Residual
  Residual-Control   Outer-Iter.   Inner-Iter.     Column Row Layer    Maximum-Head-Change  Column Row Layer    Maximum-Flux-Residual          L2-NORM 
          0                 1           2             4    7     1       0.3450744056E-01       4    7    1         0.1819074011E+01      0.3632314415E+01
          0                 2           2             4    7     1      -0.3355941007E-02       4    7    1        -0.1819092582E+00      0.3588305156E+00
          0                 3           2             4    7     1       0.2285497121E-03       4    7    1         0.1273363578E-01      0.2505642973E-01
          0                 4           1             4    7     1      -0.9093482803E-05       4    7    1        -0.5208065145E-03      0.1024821009E-02

    ------------------------------------------------
       NWT REQUIRED            4 OUTER ITERATIONS 
       AND A TOTAL OF          7 INNER ITERATIONS.
    ------------------------------------------------

 NO OUTPUT CONTROL FOR STRESS PERIOD   24   TIME STEP   20
 
 SOLVING FOR HEAD 
                                                   Max.-Head-Change                         Max.-Flux-Residual
  Residual-Control   Outer-Iter.   Inner-Iter.     Column Row Layer    Maximum-Head-Change  Column Row Layer    Maximum-Flux-Residual          L2-NORM 
          0                 1           2             4    7     1       0.3401350010E-01       4    7    1         0.1792972838E+01      0.3588881559E+01
          0                 2           2             4    7     1      -0.3307886543E-02       4    7    1        -0.1792990925E+00      0.3543181814E+00
          0                 3           2             4    7     1       0.2252776039E-03       4    7    1         0.1255092454E-01      0.2473914996E-01
          0                 4           1             4    7     1      -0.8963275444E-05       4    7    1        -0.5133335976E-03      0.1011843821E-02

    ------------------------------------------------
       NWT REQUIRED            4 OUTER ITERATIONS 
       AND A TOTAL OF          7 INNER ITERATIONS.
    ------------------------------------------------

 NO OUTPUT CONTROL FOR STRESS PERIOD   24   TIME STEP   21
 
 SOLVING FOR HEAD 
                                                   Max.-Head-Change                         Max.-Flux-Residual
  Residual-Control   Outer-Iter.   Inner-Iter.     Column Row Layer    Maximum-Head-Change  Column Row Layer    Maximum-Flux-Residual          L2-NORM 
          0                 1           2             4    7     1       0.3352794095E-01       4    7    1         0.1767304722E+01      0.3546407077E+01
          0                 2           2             4    7     1      -0.3260648523E-02       4    7    1        -0.1767322330E+00      0.3499153721E+00
          0                 3           2             4    7     1       0.2220610561E-03       4    7    1         0.1237124476E-01      0.2442967307E-01
          0                 4           1             4    7     1      -0.8835280608E-05       4    7    1        -0.5059846990E-03      0.9991837864E-03

    ------------------------------------------------
       NWT REQUIRED            4 OUTER ITERATIONS 
       AND A TOTAL OF          7 INNER ITERATIONS.
    ------------------------------------------------

 NO OUTPUT CONTROL FOR STRESS PERIOD   24   TIME STEP   22
 
 SOLVING FOR HEAD 
                                                   Max.-Head-Change                         Max.-Flux-Residual
  Residual-Control   Outer-Iter.   Inner-Iter.     Column Row Layer    Maximum-Head-Change  Column Row Layer    Maximum-Flux-Residual          L2-NORM 
          0                 1           2             4    7     1       0.3305102820E-01       4    7    1         0.1742085680E+01      0.3504843027E+01
          0                 2           2             4    7     1      -0.3214252617E-02       4    7    1        -0.1742102817E+00      0.3456165744E+00
          0                 3           2             4    7     1       0.2189018201E-03       4    7    1         0.1219470855E-01      0.2412760922E-01
          0                 4           1             4    7     1      -0.8709567140E-05       4    7    1        -0.4987643588E-03      0.9868303119E-03

    ------------------------------------------------
       NWT REQUIRED            4 OUTER ITERATIONS 
       AND A TOTAL OF          7 INNER ITERATIONS.
    ------------------------------------------------

 NO OUTPUT CONTROL FOR STRESS PERIOD   24   TIME STEP   23
 
 SOLVING FOR HEAD 
                                                   Max.-Head-Change                         Max.-Flux-Residual
  Residual-Control   Outer-Iter.   Inner-Iter.     Column Row Layer    Maximum-Head-Change  Column Row Layer    Maximum-Flux-Residual          L2-NORM 
          0                 1           2             4    7     1       0.3258245417E-01       4    7    1         0.1717300292E+01      0.3464154332E+01
          0                 2           2             4    7     1      -0.3168668807E-02       4    7    1        -0.1717316967E+00      0.3414177690E+00
          0                 3           2             4    7     1       0.2157978539E-03       4    7    1         0.1202120797E-01      0.2383265264E-01
          0                 4           1             4    7     1      -0.8586053530E-05       4    7    1        -0.4916681619E-03      0.9747626394E-03

    ------------------------------------------------
       NWT REQUIRED            4 OUTER ITERATIONS 
       AND A TOTAL OF          7 INNER ITERATIONS.
    ------------------------------------------------

 NO OUTPUT CONTROL FOR STRESS PERIOD   24   TIME STEP   24
 
 SOLVING FOR HEAD 
                                                   Max.-Head-Change                         Max.-Flux-Residual
  Residual-Control   Outer-Iter.   Inner-Iter.     Column Row Layer    Maximum-Head-Change  Column Row Layer    Maximum-Flux-Residual          L2-NORM 
          0                 1           2             4    7     1       0.3212230724E-01       4    7    1         0.1692954490E+01      0.3424305753E+01
          0                 2           2             4    7     1      -0.3123905592E-02       4    7    1        -0.1692970711E+00      0.3373146925E+00
          0                 3           2             4    7     1       0.2127497399E-03       4    7    1         0.1185078451E-01      0.2354450773E-01
          0                 4           1             4    7     1      -0.8464763494E-05       4    7    1        -0.4846978418E-03      0.9629717363E-03

    ------------------------------------------------
       NWT REQUIRED            4 OUTER ITERATIONS 
       AND A TOTAL OF          7 INNER ITERATIONS.
    ------------------------------------------------

 NO OUTPUT CONTROL FOR STRESS PERIOD   24   TIME STEP   25
 
 SOLVING FOR HEAD 
                                                   Max.-Head-Change                         Max.-Flux-Residual
  Residual-Control   Outer-Iter.   Inner-Iter.     Column Row Layer    Maximum-Head-Change  Column Row Layer    Maximum-Flux-Residual          L2-NORM 
          0                 1           2             4    7     1       0.3167064834E-01       4    7    1         0.1669052862E+01      0.3385264831E+01
          0                 2           2             4    7     1      -0.3079968836E-02       4    7    1        -0.1669068640E+00      0.3333036801E+00
          0                 3           2             4    7     1       0.2097578799E-03       4    7    1         0.1168347039E-01      0.2326291905E-01
          0                 4           1             4    7     1      -0.8345712345E-05       4    7    1        -0.4778546622E-03      0.9514533259E-03

    ------------------------------------------------
       NWT REQUIRED            4 OUTER ITERATIONS 
       AND A TOTAL OF          7 INNER ITERATIONS.
    ------------------------------------------------

 NO OUTPUT CONTROL FOR STRESS PERIOD   24   TIME STEP   26
 
 SOLVING FOR HEAD 
                                                   Max.-Head-Change                         Max.-Flux-Residual
  Residual-Control   Outer-Iter.   Inner-Iter.     Column Row Layer    Maximum-Head-Change  Column Row Layer    Maximum-Flux-Residual          L2-NORM 
          0                 1           2             4    7     1       0.3122725480E-01       4    7    1         0.1645583985E+01      0.3347006356E+01
          0                 2           2             4    7     1      -0.3036836795E-02       4    7    1        -0.1645599330E+00      0.3293814524E+00
          0                 3           2             4    7     1       0.2068207952E-03       4    7    1         0.1151918555E-01      0.2298763837E-01
          0                 4           1             4    7     1      -0.8228841483E-05       4    7    1        -0.4711354136E-03      0.9401902526E-03

    ------------------------------------------------
       NWT REQUIRED            4 OUTER ITERATIONS 
       AND A TOTAL OF          7 INNER ITERATIONS.
    ------------------------------------------------

 NO OUTPUT CONTROL FOR STRESS PERIOD   24   TIME STEP   27
 
 SOLVING FOR HEAD 
                                                   Max.-Head-Change                         Max.-Flux-Residual
  Residual-Control   Outer-Iter.   Inner-Iter.     Column Row Layer    Maximum-Head-Change  Column Row Layer    Maximum-Flux-Residual          L2-NORM 
          0                 1           2             4    7     1       0.3079202298E-01       4    7    1         0.1622543611E+01      0.3309492327E+01
          0                 2           2             4    7     1      -0.2994499330E-02       4    7    1        -0.1622558532E+00      0.3255436450E+00
          0                 3           2             4    7     1       0.2039377976E-03       4    7    1         0.1135790031E-01      0.2271835194E-01
          0                 4           1             4    7     1      -0.8114123737E-05       4    7    1        -0.4645388335E-03      0.9291775656E-03

    ------------------------------------------------
       NWT REQUIRED            4 OUTER ITERATIONS 
       AND A TOTAL OF          7 INNER ITERATIONS.
    ------------------------------------------------

 NO OUTPUT CONTROL FOR STRESS PERIOD   24   TIME STEP   28
 
 SOLVING FOR HEAD 
                                                   Max.-Head-Change                         Max.-Flux-Residual
  Residual-Control   Outer-Iter.   Inner-Iter.     Column Row Layer    Maximum-Head-Change  Column Row Layer    Maximum-Flux-Residual          L2-NORM 
          0                 1           2             4    7     1       0.3036484718E-01       4    7    1         0.1599926369E+01      0.3272700918E+01
          0                 2           2             4    7     1      -0.2952946096E-02       4    7    1        -0.1599940877E+00      0.3217875043E+00
          0                 3           2             4    7     1       0.2011081844E-03       4    7    1         0.1119957704E-01      0.2245488004E-01
          0                 4           1             4    7     1      -0.8001531016E-05       4    7    1        -0.4580634095E-03      0.9184013286E-03

    ------------------------------------------------
       NWT REQUIRED            4 OUTER ITERATIONS 
       AND A TOTAL OF          7 INNER ITERATIONS.
    ------------------------------------------------

 NO OUTPUT CONTROL FOR STRESS PERIOD   24   TIME STEP   29
 
 SOLVING FOR HEAD 
                                                   Max.-Head-Change                         Max.-Flux-Residual
  Residual-Control   Outer-Iter.   Inner-Iter.     Column Row Layer    Maximum-Head-Change  Column Row Layer    Maximum-Flux-Residual          L2-NORM 
          0                 1           2             4    7     1       0.2994587697E-01       4    7    1         0.1577741377E+01      0.3236623233E+01
          0                 2           2             4    7     1      -0.2912191578E-02       4    7    1        -0.1577755483E+00      0.3181113679E+00
          0                 3           2             4    7     1       0.1983329443E-03       4    7    1         0.1104427961E-01      0.2219707746E-01
          0                 4           1             4    7     1      -0.7891101773E-05       4    7    1        -0.4517117204E-03      0.9078522943E-03

    ------------------------------------------------
       NWT REQUIRED            4 OUTER ITERATIONS 
       AND A TOTAL OF          7 INNER ITERATIONS.
    ------------------------------------------------

 NO OUTPUT CONTROL FOR STRESS PERIOD   24   TIME STEP   30



 STREAM LISTING     PERIOD     24   STEP       30

 LAYER ROW COL. STREAM  RCH.  FLOW INTO     FLOW TO   FLOW OUT OF   OVRLND.     DIRECT     STREAM       STREAM     STREAM     STREAM   STREAMBED  STREAMBED
                SEG.NO.  NO.  STRM. RCH.    AQUIFER    STRM. RCH.    RUNOFF     PRECIP       ET          HEAD       DEPTH      WIDTH   CONDCTNC.   GRADIENT

   1    1    1     1     1    7.8751E+00  1.2805E-01   7.7471E+00  0.000E+00  0.000E+00  0.000E+00  1.09388E+03  8.295E-01  7.430E+00  3.344E-02  1.276E+00
   1    2    2     1     2    7.7471E+00  1.9663E-01   7.5504E+00  0.000E+00  0.000E+00  0.000E+00  1.08888E+03  8.238E-01  7.346E+00  5.142E-02  1.275E+00
   1    3    3     1     3    7.5504E+00  1.6607E-01   7.3844E+00  0.000E+00  0.000E+00  0.000E+00  1.08324E+03  8.173E-01  7.251E+00  4.350E-02  1.272E+00
   1    3    4     1     4    7.3844E+00  1.5159E-01   7.2328E+00  0.000E+00  0.000E+00  0.000E+00  1.07822E+03  8.115E-01  7.166E+00  3.977E-02  1.270E+00
   1    4    5     2     1    5.2328E+00  2.7028E-01   4.9625E+00  0.000E+00  0.000E+00  0.000E+00  1.07240E+03  4.651E-01  1.200E+01  7.800E-02  1.155E+00
   1    5    6     2     2    4.9625E+00  2.0712E-01   4.7554E+00  0.000E+00  0.000E+00  0.000E+00  1.06696E+03  4.519E-01  1.200E+01  6.000E-02  1.151E+00
   1    6    6     2     3    4.7554E+00  2.0642E-01   4.5490E+00  0.000E+00  0.000E+00  0.000E+00  1.06223E+03  4.403E-01  1.200E+01  6.000E-02  1.147E+00
   1    7    6     2     4    4.5490E+00  2.0571E-01   4.3433E+00  0.000E+00  0.000E+00  0.000E+00  1.05750E+03  4.285E-01  1.200E+01  6.000E-02  1.143E+00
   1    8    6     2     5    4.3433E+00  2.0499E-01   4.1383E+00  0.000E+00  0.000E+00  0.000E+00  1.05278E+03  4.165E-01  1.200E+01  6.000E-02  1.139E+00
   1    3    5     3     1    2.0000E+00  2.8252E-01   1.7175E+00  0.000E+00  0.000E+00  0.000E+00  1.07555E+03  1.909E+00  9.636E+00  7.227E-02  1.955E+00
   1    3    6     3     2    1.7175E+00  2.4905E-01   1.4684E+00  0.000E+00  0.000E+00  0.000E+00  1.07264E+03  1.727E+00  8.909E+00  6.682E-02  1.864E+00
   1    3    7     3     3    1.4684E+00  1.9718E-01   1.2712E+00  0.000E+00  0.000E+00  0.000E+00  1.06987E+03  1.555E+00  8.218E+00  5.547E-02  1.777E+00
   1    4    8     3     4    1.2712E+00  2.2567E-01   1.0456E+00  0.000E+00  0.000E+00  0.000E+00  1.06682E+03  1.364E+00  7.455E+00  6.709E-02  1.682E+00
   1    5    8     3     5    1.0456E+00  1.5790E-01   8.8768E-01  0.000E+00  0.000E+00  0.000E+00  1.06362E+03  1.164E+00  6.655E+00  4.991E-02  1.582E+00
   1    6    8     3     6    8.8768E-01  5.5980E-02   8.3170E-01  0.000E+00  0.000E+00  0.000E+00  1.06158E+03  1.036E+00  6.145E+00  1.844E-02  1.518E+00
   1    5   10     4     1    1.0000E+01  9.0919E-02   9.9091E+00  0.000E+00  0.000E+00  0.000E+00  1.07836E+03  6.368E-01  1.000E+01  2.500E-02  1.212E+00
   1    5    9     4     2    9.9091E+00  1.8158E-01   9.7275E+00  0.000E+00  0.000E+00  0.000E+00  1.07154E+03  6.315E-01  1.000E+01  5.000E-02  1.211E+00
   1    6    8     4     3    9.7275E+00  1.2689E-01   9.6006E+00  0.000E+00  0.000E+00  0.000E+00  1.06381E+03  6.256E-01  1.000E+01  3.500E-02  1.209E+00
   1    6    8     5     1    1.0432E+01  2.2686E-01   1.0205E+01  0.000E+00  0.000E+00  0.000E+00  1.05868E+03  6.790E-01  1.542E+01  6.166E-02  1.226E+00
   1    7    7     5     2    1.0205E+01  2.7894E-01   9.9265E+00  0.000E+00  0.000E+00  0.000E+00  1.05417E+03  6.732E-01  1.519E+01  7.594E-02  1.224E+00
   1    8    7     5     3    9.9265E+00  1.9221E-01   9.7343E+00  0.000E+00  0.000E+00  0.000E+00  1.04992E+03  6.676E-01  1.497E+01  5.241E-02  1.223E+00
   1    8    6     5     4    9.7343E+00  1.3577E-01   9.5985E+00  0.000E+00  0.000E+00  0.000E+00  1.04691E+03  6.637E-01  1.482E+01  3.706E-02  1.221E+00
   1    9    6     6     1    1.3737E+01  2.3089E-01   1.3506E+01  0.000E+00  0.000E+00  0.000E+00  1.04358E+03  8.482E-01  1.200E+01  6.000E-02  1.283E+00
   1   10    7     6     2    1.3506E+01  2.3037E-01   1.3276E+01  0.000E+00  0.000E+00  0.000E+00  1.03902E+03  8.396E-01  1.200E+01  6.000E-02  1.280E+00
   1   11    7     6     3    1.3276E+01  2.2985E-01   1.3046E+01  0.000E+00  0.000E+00  0.000E+00  1.03447E+03  8.309E-01  1.200E+01  6.000E-02  1.277E+00
   1   12    7     6     4    1.3046E+01  2.2933E-01   1.2816E+01  0.000E+00  0.000E+00  0.000E+00  1.02991E+03  8.221E-01  1.200E+01  6.000E-02  1.274E+00
   1   13    7     6     5    1.2816E+01  5.5600E-04   1.2816E+01  0.000E+00  0.000E+00  0.000E+00  1.02673E+03  8.178E-01  1.200E+01  2.400E-02  7.722E-03
   1   14    9     7     1    1.5000E+02  1.3764E+00   1.4862E+02  0.000E+00  0.000E+00  0.000E+00  1.03987E+03  2.288E+00  5.529E+01  5.593E-01  8.203E-01
   1   13    8     7     2    1.4862E+02  1.9554E+00   1.4667E+02  0.000E+00  0.000E+00  0.000E+00  1.03478E+03  2.279E+00  5.525E+01  6.147E-01  1.060E+00
   1   13    7     7     3    1.4667E+02  1.6666E+00   1.4500E+02  0.000E+00  0.000E+00  0.000E+00  1.02969E+03  2.269E+00  5.521E+01  5.584E-01  9.949E-01
   1   13    6     8     1    1.5782E+02  1.0500E+00   1.5677E+02  0.000E+00  0.000E+00  0.000E+00  1.02474E+03  2.867E+00  4.158E+01  4.237E-01  8.261E-01
   1   13    5     8     2    1.5677E+02  3.0748E-01   1.5646E+02  0.000E+00  0.000E+00  0.000E+00  1.01849E+03  2.863E+00  4.151E+01  4.230E-01  2.423E-01
   1   13    4     8     3    1.5646E+02 -1.9650E+00   1.5842E+02  0.000E+00  0.000E+00  0.000E+00  1.01224E+03  2.868E+00  4.159E+01  4.238E+00 -1.545E-01
   1   13    3     8     4    1.5842E+02 -3.4187E+00   1.6184E+02  0.000E+00  0.000E+00  0.000E+00  1.00601E+03  2.887E+00  4.186E+01  4.265E+00 -2.672E-01
   1   13    2     8     5    1.6184E+02 -2.5222E+00   1.6437E+02  0.000E+00  0.000E+00  0.000E+00  9.99782E+02  2.907E+00  4.215E+01  4.295E+00 -1.957E-01
   1   13    1     8     6    1.6437E+02 -1.9640E+00   1.6633E+02  0.000E+00  0.000E+00  0.000E+00  9.94797E+02  2.922E+00  4.236E+01  2.590E+00 -2.527E-01
   1    8    6     9     1    0.0000E+00  0.0000E+00   0.0000E+00  0.000E+00  0.000E+00  0.000E+00  1.07875E+03  0.000E+00  4.000E+00  0.000E+00  1.000E+00
   1    8    5     9     2    0.0000E+00  0.0000E+00   0.0000E+00  0.000E+00  0.000E+00  0.000E+00  1.07825E+03  0.000E+00  4.000E+00  0.000E+00  1.000E+00





UNSATURATED ZONE PACKAGE VOLUMETRIC BUDGET FOR  TIME STEP    30 STRESS PERIOD   24
  ------------------------------------------------------------------------------



     CUMULATIVE VOLUMES      L**3       RATES FOR THIS TIME STEP      L**3/T
     ------------------                 ------------------------

           IN:                                      IN:
           ---                                      ---
        INFILTRATION =  1232942123.1208          INFILTRATION =           4.4075

          OUT:                                     OUT:
          ----                                     ----
              UZF ET =   996912139.8295                UZF ET =           0.7250
        UZF RECHARGE =     3628713.4607          UZF RECHARGE =           0.0972

            IN - OUT =   232401269.8307              IN - OUT =           3.5853

          STORAGE:                                 STORAGE:
          --------                                 --------
      STORAGE CHANGE =   232401254.7533        STORAGE CHANGE =           3.5853

 PERCENT DISCREPANCY IS DIFFERENCE BETWEEN IN-OUT MINUS CHANGE IN STORAGE
 DIVIDED BY THE AVERAGE OF IN AND OUT TIMES 100

 PERCENT DISCREPANCY =           0.00     PERCENT DISCREPANCY =           0.00






1
  VOLUMETRIC BUDGET FOR AGRICULTURAL FIELDS AT  END OF TIME STEP   30, STRESS PERIOD  24
  ------------------------------------------------------------------------------

     CUMULATIVE VOLUMES      L**3       RATES FOR THIS TIME STEP      L**3/T
     ------------------                 ------------------------

           IN:                                      IN:
           ---                                      ---
               AG WELLS  =   599544832.0000                 AG WELLS  =           0.0000
      DIVERSION SEGMENTS =   366911456.0000        DIVERSION SEGMENTS =           0.0000
           GW IRRIGATION =           0.0000             GW IRRIGATION =           0.0000
           SW IRRIGATION =           0.0000             SW IRRIGATION =           0.0000
        SYSTEM LOSSES GW =           0.0000          SYSTEM LOSSES GW =           0.0000
        SYSTEM LOSSES SW =           0.0000          SYSTEM LOSSES SW =           0.0000

                TOTAL IN =   966456320.0000                  TOTAL IN =           0.0000

          OUT:                                     OUT:
          ----                                     ----
               AG WELLS  =           0.0000                 AG WELLS  =           0.0000
      DIVERSION SEGMENTS =           0.0000        DIVERSION SEGMENTS =           0.0000
           GW IRRIGATION =   599544832.0000             GW IRRIGATION =           0.0000
           SW IRRIGATION =   366918816.0000             SW IRRIGATION =           0.0000
        SYSTEM LOSSES GW =           0.0000          SYSTEM LOSSES GW =           0.0000
        SYSTEM LOSSES SW =           0.0000          SYSTEM LOSSES SW =           0.0000

               TOTAL OUT =   966463616.0000                 TOTAL OUT =           0.0000

                IN - OUT =       -7296.0000                  IN - OUT =           0.0000

     PERCENT DISCREPANCY =          -0.00         PERCENT DISCREPANCY =           0.00



1
  VOLUMETRIC BUDGET FOR ENTIRE MODEL AT END OF TIME STEP   30, STRESS PERIOD  24
  ------------------------------------------------------------------------------

     CUMULATIVE VOLUMES      L**3       RATES FOR THIS TIME STEP      L**3/T
     ------------------                 ------------------------

           IN:                                      IN:
           ---                                      ---
             STORAGE     =   860685120.0000               STORAGE     =           8.0782
       CONSTANT HEAD     =           0.0000         CONSTANT HEAD     =           0.0000
     HEAD DEP BOUNDS     =    17451086.0000       HEAD DEP BOUNDS     =           0.2885
      STREAM LEAKAGE     =   710913472.0000        STREAM LEAKAGE     =          11.4152
        UZF RECHARGE     =     3628713.5000          UZF RECHARGE     =       9.7173E-02
               GW ET     =           0.0000                 GW ET     =           0.0000
     SURFACE LEAKAGE     =           0.0000       SURFACE LEAKAGE     =           0.0000
           AG WELLS      =           0.0000             AG WELLS      =           0.0000

                TOTAL IN =  1592678272.0000                  TOTAL IN =          19.8790

          OUT:                                     OUT:
          ----                                     ----
             STORAGE     =   357839424.0000               STORAGE     =           9.7222
       CONSTANT HEAD     =           0.0000         CONSTANT HEAD     =           0.0000
     HEAD DEP BOUNDS     =    17439592.0000       HEAD DEP BOUNDS     =           0.2871
      STREAM LEAKAGE     =   617860096.0000        STREAM LEAKAGE     =           9.8698
        UZF RECHARGE     =           0.0000          UZF RECHARGE     =           0.0000
               GW ET     =           0.0000                 GW ET     =           0.0000
     SURFACE LEAKAGE     =           0.0000       SURFACE LEAKAGE     =           0.0000
           AG WELLS      =   599544832.0000             AG WELLS      =           0.0000

               TOTAL OUT =  1592683904.0000                 TOTAL OUT =          19.8790

                IN - OUT =       -5632.0000                  IN - OUT =       7.6294E-06

     PERCENT DISCREPANCY =          -0.00         PERCENT DISCREPANCY =           0.00






         TIME SUMMARY AT END OF TIME STEP   30 IN STRESS PERIOD   24
                    SECONDS     MINUTES      HOURS       DAYS        YEARS
                    -----------------------------------------------------------
   TIME STEP LENGTH  87667.      1461.1      24.352      1.0147     2.77799E-03
 STRESS PERIOD TIME 2.63000E+06  43833.      730.56      30.440     8.33397E-02
         TOTAL TIME 6.05767E+07 1.00961E+06  16827.      701.12      1.9196    
1
1
                            STRESS PERIOD NO.   25, LENGTH =   2630000.    
                            -----------------------------------------------

                              NUMBER OF TIME STEPS =    30

                               MULTIPLIER FOR DELT =     1.000

                            INITIAL TIME STEP SIZE =   87666.66    

 REUSING NON-PARAMETER GHB CELLS FROM LAST STRESS PERIOD

      2 GHB CELLS

 REUSING STREAM SEGMENT DATA FROM LAST STRESS PERIOD



            AREAL INFILTRATION RATE
 READING ON UNIT   19 WITH FORMAT: (10F4.0)            

            1           2           3           4           5           6           7           8           9          10
 ........................................................................................................................
   1   1.2000E-09   0.000       0.000       0.000       0.000       0.000       0.000       0.000       0.000       0.000    
   2   2.1000E-09  2.0000E-09  8.0000E-10  8.5000E-09   0.000       0.000       0.000       0.000       0.000       0.000    
   3   5.0000E-10  1.1000E-09  8.8000E-09  5.5000E-09   0.000       0.000       0.000       0.000       0.000       0.000    
   4   8.5000E-09  1.1000E-09  1.1000E-09  1.1000E-09  2.0000E-09   0.000       0.000       0.000       0.000       0.000    
   5   8.5000E-09  1.1000E-09  1.1000E-09  1.1000E-09  1.1000E-09   0.000       0.000       0.000       0.000       0.000    
   6   8.5000E-09  5.2000E-09  2.1000E-09  1.1000E-09  1.5000E-09   0.000       0.000       0.000       0.000       0.000    
   7   8.5000E-09  5.2000E-09  2.1000E-09  1.2000E-09  2.0000E-09   0.000       0.000       0.000       0.000       0.000    
   8   5.0000E-10  5.2000E-09  2.1000E-09  1.2000E-09  5.0000E-09   0.000       0.000       0.000       0.000       0.000    
   9   5.0000E-10  5.2000E-09  2.1000E-09  1.2000E-09  5.0000E-09   0.000       0.000       0.000       0.000       0.000    
  10   5.0000E-10  5.2000E-09  2.1000E-09  1.2000E-09  5.8000E-09   0.000       0.000       0.000       0.000       0.000    
  11   1.0000E-10  1.1000E-09  1.1000E-09  1.2000E-09  5.0000E-09   0.000       0.000       0.000       0.000       0.000    
  12   1.1000E-09  1.1000E-09  1.1000E-09  1.1000E-09  2.0000E-09   0.000       0.000       0.000       0.000       0.000    
  13   1.1000E-09  2.2000E-09  2.2000E-09  2.1000E-09  1.0000E-09   0.000       0.000       0.000       0.000       0.000    
  14   2.0000E-10  5.5000E-09  5.5000E-09  5.2000E-09  1.0000E-09   0.000       0.000       0.000       0.000       0.000    
  15    0.000      8.8000E-09  8.8000E-09   0.000       0.000       0.000       0.000       0.000       0.000       0.000    

                  ET RATE =  5.000000E-10

 USING ET EXTINCTION DEPTH FROM PREVIOUS STRESS PERIOD. CURRENT PERIOD IS:      25

 USING EXTINCTION WATER CONTENT FROM PREVIOUS STRESS PERIOD. CURRENT PERIOD IS:      25

 USING AIR ENTRY PRESSURE FROM PREVIOUS STRESS PERIOD. CURRENT PERIOD IS:      25

 USING ROOT PRESSURE HEAD FROM PREVIOUS STRESS PERIOD. CURRENT PERIOD IS:      25

 USING ROOT ACTIVITY FROM PREVIOUS STRESS PERIOD. CURRENT PERIOD IS:      25

 PROCESSING AG STRESS PERIOD DATA

 READING AG STRESS PERIOD DATA

 READING IRRIGATION SEGMENT

 READING IRRIGATION WELL

 READING SUPPLEMENTAL WELL

 END PROCESSING AG STRESS PERIOD DATA OPTIONS
 
 SOLVING FOR HEAD 
                                                   Max.-Head-Change                         Max.-Flux-Residual
  Residual-Control   Outer-Iter.   Inner-Iter.     Column Row Layer    Maximum-Head-Change  Column Row Layer    Maximum-Flux-Residual          L2-NORM 
          0                 1           2             4    7     1       0.2953469903E-01       4    7    1         0.1555967208E+01      0.3201864686E+01
          0                 2           2             4    7     1      -0.2872195551E-02       4    7    1        -0.1555980921E+00      0.3145759537E+00
          0                 3           2             4    7     1       0.1956093384E-03       4    7    1         0.1089185798E-01      0.2194918158E-01
          0                 4           1             4    7     1      -0.7782728018E-05       4    7    1        -0.4454776713E-03      0.9302297029E-03

    ------------------------------------------------
       NWT REQUIRED            4 OUTER ITERATIONS 
       AND A TOTAL OF          7 INNER ITERATIONS.
    ------------------------------------------------

 NO OUTPUT CONTROL FOR STRESS PERIOD   25   TIME STEP    1
 
 SOLVING FOR HEAD 
                                                   Max.-Head-Change                         Max.-Flux-Residual
  Residual-Control   Outer-Iter.   Inner-Iter.     Column Row Layer    Maximum-Head-Change  Column Row Layer    Maximum-Flux-Residual          L2-NORM 
          0                 1           2             4    7     1       0.2913131944E-01       4    7    1         0.1534604321E+01      0.3167350297E+01
          0                 2           2             4    7     1      -0.2832956500E-02       4    7    1        -0.1534617654E+00      0.3111106211E+00
          0                 3           2             4    7     1       0.1929375535E-03       4    7    1         0.1074231541E-01      0.2170527762E-01
          0                 4           1             4    7     1      -0.7676404340E-05       4    7    1        -0.4393613631E-03      0.8877244097E-03

    ------------------------------------------------
       NWT REQUIRED            4 OUTER ITERATIONS 
       AND A TOTAL OF          7 INNER ITERATIONS.
    ------------------------------------------------

 NO OUTPUT CONTROL FOR STRESS PERIOD   25   TIME STEP    2
 
 SOLVING FOR HEAD 
                                                   Max.-Head-Change                         Max.-Flux-Residual
  Residual-Control   Outer-Iter.   Inner-Iter.     Column Row Layer    Maximum-Head-Change  Column Row Layer    Maximum-Flux-Residual          L2-NORM 
          0                 1           2             4    7     1       0.2873560031E-01       4    7    1         0.1513645866E+01      0.3133254041E+01
          0                 2           2             4    7     1      -0.2794465728E-02       4    7    1        -0.1513658827E+00      0.3076181563E+00
          0                 3           2             4    7     1       0.1903162708E-03       4    7    1         0.1059560391E-01      0.2146130837E-01
          0                 4           1             4    7     1      -0.7572107830E-05       4    7    1        -0.4333608549E-03      0.8777621662E-03

    ------------------------------------------------
       NWT REQUIRED            4 OUTER ITERATIONS 
       AND A TOTAL OF          7 INNER ITERATIONS.
    ------------------------------------------------

 NO OUTPUT CONTROL FOR STRESS PERIOD   25   TIME STEP    3
 
 SOLVING FOR HEAD 
                                                   Max.-Head-Change                         Max.-Flux-Residual
  Residual-Control   Outer-Iter.   Inner-Iter.     Column Row Layer    Maximum-Head-Change  Column Row Layer    Maximum-Flux-Residual          L2-NORM 
          0                 1           2             4    7     1       0.2834739831E-01       4    7    1         0.1493084400E+01      0.3099814055E+01
          0                 2           2             4    7     1      -0.2756705417E-02       4    7    1        -0.1493097001E+00      0.3042280320E+00
          0                 3           2             4    7     1       0.1877448851E-03       4    7    1         0.1045167141E-01      0.2122373315E-01
          0                 4           1             4    7     1      -0.7469791974E-05       4    7    1        -0.4274740159E-03      0.8680243262E-03

    ------------------------------------------------
       NWT REQUIRED            4 OUTER ITERATIONS 
       AND A TOTAL OF          7 INNER ITERATIONS.
    ------------------------------------------------

 NO OUTPUT CONTROL FOR STRESS PERIOD   25   TIME STEP    4
 
 SOLVING FOR HEAD 
                                                   Max.-Head-Change                         Max.-Flux-Residual
  Residual-Control   Outer-Iter.   Inner-Iter.     Column Row Layer    Maximum-Head-Change  Column Row Layer    Maximum-Flux-Residual          L2-NORM 
          0                 1           2             4    7     1       0.2796657021E-01       4    7    1         0.1472912733E+01      0.3066973943E+01
          0                 2           2             4    7     1      -0.2719662751E-02       4    7    1        -0.1472924983E+00      0.3009045371E+00
          0                 3           2             4    7     1       0.1852223567E-03       4    7    1         0.1031046755E-01      0.2099089788E-01
          0                 4           1             4    7     1      -0.7369420048E-05       4    7    1        -0.4216987682E-03      0.8585071934E-03

    ------------------------------------------------
       NWT REQUIRED            4 OUTER ITERATIONS 
       AND A TOTAL OF          7 INNER ITERATIONS.
    ------------------------------------------------

 NO OUTPUT CONTROL FOR STRESS PERIOD   25   TIME STEP    5
 
 SOLVING FOR HEAD 
                                                   Max.-Head-Change                         Max.-Flux-Residual
  Residual-Control   Outer-Iter.   Inner-Iter.     Column Row Layer    Maximum-Head-Change  Column Row Layer    Maximum-Flux-Residual          L2-NORM 
          0                 1           2             4    7     1       0.2759297020E-01       4    7    1         0.1453123369E+01      0.3034720155E+01
          0                 2           2             4    7     1      -0.2683323521E-02       4    7    1        -0.1453135279E+00      0.2976459955E+00
          0                 3           2             4    7     1       0.1827477190E-03       4    7    1         0.1017193989E-01      0.2076265879E-01
          0                 4           1             4    7     1      -0.7270954174E-05       4    7    1        -0.4160329649E-03      0.8491868895E-03

    ------------------------------------------------
       NWT REQUIRED            4 OUTER ITERATIONS 
       AND A TOTAL OF          7 INNER ITERATIONS.
    ------------------------------------------------

 NO OUTPUT CONTROL FOR STRESS PERIOD   25   TIME STEP    6
 
 SOLVING FOR HEAD 
                                                   Max.-Head-Change                         Max.-Flux-Residual
  Residual-Control   Outer-Iter.   Inner-Iter.     Column Row Layer    Maximum-Head-Change  Column Row Layer    Maximum-Flux-Residual          L2-NORM 
          0                 1           2             4    7     1       0.2722658412E-01       4    7    1         0.1433716049E+01      0.3003040152E+01
          0                 2           2             4    7     1      -0.2647686316E-02       4    7    1        -0.1433727629E+00      0.2944506373E+00
          0                 3           2             4    7     1       0.1803208778E-03       4    7    1         0.1003608661E-01      0.2053887467E-01
          0                 4           1             4    7     1      -0.7174390669E-05       4    7    1        -0.4104765653E-03      0.8400224894E-03

    ------------------------------------------------
       NWT REQUIRED            4 OUTER ITERATIONS 
       AND A TOTAL OF          7 INNER ITERATIONS.
    ------------------------------------------------

 NO OUTPUT CONTROL FOR STRESS PERIOD   25   TIME STEP    7
 
 SOLVING FOR HEAD 
                                                   Max.-Head-Change                         Max.-Flux-Residual
  Residual-Control   Outer-Iter.   Inner-Iter.     Column Row Layer    Maximum-Head-Change  Column Row Layer    Maximum-Flux-Residual          L2-NORM 
          0                 1           2             4    7     1       0.2686725364E-01       4    7    1         0.1414682744E+01      0.2971915378E+01
          0                 2           2             4    7     1      -0.2612735696E-02       4    7    1        -0.1414694003E+00      0.2913161242E+00
          0                 3           2             4    7     1       0.1779407817E-03       4    7    1         0.9902851464E-02      0.2031940099E-01
          0                 4           1             4    7     1      -0.7079687166E-05       4    7    1        -0.4050272305E-03      0.8310486926E-03

    ------------------------------------------------
       NWT REQUIRED            4 OUTER ITERATIONS 
       AND A TOTAL OF          7 INNER ITERATIONS.
    ------------------------------------------------

 NO OUTPUT CONTROL FOR STRESS PERIOD   25   TIME STEP    8
 
 SOLVING FOR HEAD 
                                                   Max.-Head-Change                         Max.-Flux-Residual
  Residual-Control   Outer-Iter.   Inner-Iter.     Column Row Layer    Maximum-Head-Change  Column Row Layer    Maximum-Flux-Residual          L2-NORM 
          0                 1           2             4    7     1       0.2651468862E-01       4    7    1         0.1396007944E+01      0.2941329063E+01
          0                 2           2             4    7     1      -0.2578443420E-02       4    7    1        -0.1396018893E+00      0.2882404679E+00
          0                 3           2             4    7     1       0.1756055093E-03       4    7    1         0.9772125939E-02      0.2010408417E-01
          0                 4           1             4    7     1      -0.6986768025E-05       4    7    1        -0.3996805654E-03      0.8222381804E-03

    ------------------------------------------------
       NWT REQUIRED            4 OUTER ITERATIONS 
       AND A TOTAL OF          7 INNER ITERATIONS.
    ------------------------------------------------

 NO OUTPUT CONTROL FOR STRESS PERIOD   25   TIME STEP    9
 
 SOLVING FOR HEAD 
                                                   Max.-Head-Change                         Max.-Flux-Residual
  Residual-Control   Outer-Iter.   Inner-Iter.     Column Row Layer    Maximum-Head-Change  Column Row Layer    Maximum-Flux-Residual          L2-NORM 
          0                 1           2             4    7     1       0.2616887777E-01       4    7    1         0.1377691209E+01      0.2911271656E+01
          0                 2           2             4    7     1      -0.2544808373E-02       4    7    1        -0.1377701856E+00      0.2852225268E+00
          0                 3           2             4    7     1       0.1733149839E-03       4    7    1         0.9643906888E-02      0.1989502273E-01
          0                 4           1             4    7     1      -0.6895629332E-05       4    7    1        -0.3944364030E-03      0.8642566224E-03

    ------------------------------------------------
       NWT REQUIRED            4 OUTER ITERATIONS 
       AND A TOTAL OF          7 INNER ITERATIONS.
    ------------------------------------------------

 NO OUTPUT CONTROL FOR STRESS PERIOD   25   TIME STEP   10
 
 SOLVING FOR HEAD 
                                                   Max.-Head-Change                         Max.-Flux-Residual
  Residual-Control   Outer-Iter.   Inner-Iter.     Column Row Layer    Maximum-Head-Change  Column Row Layer    Maximum-Flux-Residual          L2-NORM 
          0                 1           2             4    7     1       0.2582966546E-01       4    7    1         0.1359724653E+01      0.2881725813E+01
          0                 2           2             4    7     1      -0.2511815410E-02       4    7    1        -0.1359735007E+00      0.2822598916E+00
          0                 3           2             4    7     1       0.1710681764E-03       4    7    1         0.9518139193E-02      0.1968553111E-01
          0                 4           1             4    7     1      -0.6806230333E-05       4    7    1        -0.3892924951E-03      0.8051065007E-03

    ------------------------------------------------
       NWT REQUIRED            4 OUTER ITERATIONS 
       AND A TOTAL OF          7 INNER ITERATIONS.
    ------------------------------------------------

 NO OUTPUT CONTROL FOR STRESS PERIOD   25   TIME STEP   11
 
 SOLVING FOR HEAD 
                                                   Max.-Head-Change                         Max.-Flux-Residual
  Residual-Control   Outer-Iter.   Inner-Iter.     Column Row Layer    Maximum-Head-Change  Column Row Layer    Maximum-Flux-Residual          L2-NORM 
          0                 1           2             4    7     1       0.2549689863E-01       4    7    1         0.1342100209E+01      0.2852679633E+01
          0                 2           2             4    7     1      -0.2479449590E-02       4    7    1        -0.1342110279E+00      0.2793511951E+00
          0                 3           2             4    7     1       0.1688640692E-03       4    7    1         0.9394766299E-02      0.1948203980E-01
          0                 4           1             4    7     1      -0.6718530272E-05       4    7    1        -0.3842465158E-03      0.7967884456E-03

    ------------------------------------------------
       NWT REQUIRED            4 OUTER ITERATIONS 
       AND A TOTAL OF          7 INNER ITERATIONS.
    ------------------------------------------------

 NO OUTPUT CONTROL FOR STRESS PERIOD   25   TIME STEP   12
 
 SOLVING FOR HEAD 
                                                   Max.-Head-Change                         Max.-Flux-Residual
  Residual-Control   Outer-Iter.   Inner-Iter.     Column Row Layer    Maximum-Head-Change  Column Row Layer    Maximum-Flux-Residual          L2-NORM 
          0                 1           2             4    7     1       0.2517029208E-01       4    7    1         0.1324802641E+01      0.2824118943E+01
          0                 2           2             4    7     1      -0.2447683131E-02       4    7    1        -0.1324812436E+00      0.2764942879E+00
          0                 3           2             4    7     1       0.1667007723E-03       4    7    1         0.9273681617E-02      0.1928217476E-01
          0                 4           1             4    7     1      -0.6632454661E-05       4    7    1        -0.3792941502E-03      0.7886136553E-03

    ------------------------------------------------
       NWT REQUIRED            4 OUTER ITERATIONS 
       AND A TOTAL OF          7 INNER ITERATIONS.
    ------------------------------------------------

 NO OUTPUT CONTROL FOR STRESS PERIOD   25   TIME STEP   13
 
 SOLVING FOR HEAD 
                                                   Max.-Head-Change                         Max.-Flux-Residual
  Residual-Control   Outer-Iter.   Inner-Iter.     Column Row Layer    Maximum-Head-Change  Column Row Layer    Maximum-Flux-Residual          L2-NORM 
          0                 1           2             4    7     1       0.2484997129E-01       4    7    1         0.1307839069E+01      0.2796036677E+01
          0                 2           2             4    7     1      -0.2416528258E-02       4    7    1        -0.1307848598E+00      0.2736894999E+00
          0                 3           2             4    7     1       0.1645791174E-03       4    7    1         0.9154934956E-02      0.1908599460E-01
          0                 4           1             4    7     1      -0.6548036196E-05       4    7    1        -0.3744374126E-03      0.7805945084E-03

    ------------------------------------------------
       NWT REQUIRED            4 OUTER ITERATIONS 
       AND A TOTAL OF          7 INNER ITERATIONS.
    ------------------------------------------------

 NO OUTPUT CONTROL FOR STRESS PERIOD   25   TIME STEP   14
 
 SOLVING FOR HEAD 
                                                   Max.-Head-Change                         Max.-Flux-Residual
  Residual-Control   Outer-Iter.   Inner-Iter.     Column Row Layer    Maximum-Head-Change  Column Row Layer    Maximum-Flux-Residual          L2-NORM 
          0                 1           2             4    7     1       0.2453565104E-01       4    7    1         0.1291194093E+01      0.2768417712E+01
          0                 2           2             4    7     1      -0.2385957194E-02       4    7    1        -0.1291203364E+00      0.2709335993E+00
          0                 3           2             4    7     1       0.1624972137E-03       4    7    1         0.9038418510E-02      0.1889327541E-01
          0                 4           1             4    7     1      -0.6465199355E-05       4    7    1        -0.3696718718E-03      0.7727567718E-03

    ------------------------------------------------
       NWT REQUIRED            4 OUTER ITERATIONS 
       AND A TOTAL OF          7 INNER ITERATIONS.
    ------------------------------------------------

 NO OUTPUT CONTROL FOR STRESS PERIOD   25   TIME STEP   15
 
 SOLVING FOR HEAD 
                                                   Max.-Head-Change                         Max.-Flux-Residual
  Residual-Control   Outer-Iter.   Inner-Iter.     Column Row Layer    Maximum-Head-Change  Column Row Layer    Maximum-Flux-Residual          L2-NORM 
          0                 1           2             4    7     1       0.2422732334E-01       4    7    1         0.1274867533E+01      0.2741255261E+01
          0                 2           2             4    7     1      -0.2355969163E-02       4    7    1        -0.1274876553E+00      0.2682263905E+00
          0                 3           2             4    7     1       0.1604550094E-03       4    7    1         0.8924131042E-02      0.1870399199E-01
          0                 4           1             4    7     1      -0.6383942295E-05       4    7    1        -0.3649975074E-03      0.7649663964E-03

    ------------------------------------------------
       NWT REQUIRED            4 OUTER ITERATIONS 
       AND A TOTAL OF          7 INNER ITERATIONS.
    ------------------------------------------------

 NO OUTPUT CONTROL FOR STRESS PERIOD   25   TIME STEP   16
 
 SOLVING FOR HEAD 
                                                   Max.-Head-Change                         Max.-Flux-Residual
  Residual-Control   Outer-Iter.   Inner-Iter.     Column Row Layer    Maximum-Head-Change  Column Row Layer    Maximum-Flux-Residual          L2-NORM 
          0                 1           2             4    7     1       0.2392470437E-01       4    7    1         0.1258844366E+01      0.2714534965E+01
          0                 2           2             4    7     1      -0.2326536536E-02       4    7    1        -0.1258853144E+00      0.2655659928E+00
          0                 3           2             4    7     1       0.1584506228E-03       4    7    1         0.8811967356E-02      0.1851799947E-01
          0                 4           1             4    7     1      -0.6304190528E-05       4    7    1        -0.3604100061E-03      0.7573757751E-03

    ------------------------------------------------
       NWT REQUIRED            4 OUTER ITERATIONS 
       AND A TOTAL OF          7 INNER ITERATIONS.
    ------------------------------------------------

 NO OUTPUT CONTROL FOR STRESS PERIOD   25   TIME STEP   17
 
 SOLVING FOR HEAD 
                                                   Max.-Head-Change                         Max.-Flux-Residual
  Residual-Control   Outer-Iter.   Inner-Iter.     Column Row Layer    Maximum-Head-Change  Column Row Layer    Maximum-Flux-Residual          L2-NORM 
          0                 1           2             4    7     1       0.2362765660E-01       4    7    1         0.1243117183E+01      0.2688243320E+01
          0                 2           2             4    7     1      -0.2297645930E-02       4    7    1        -0.1243125725E+00      0.2629509845E+00
          0                 3           2             4    7     1       0.1564831429E-03       4    7    1         0.8701875609E-02      0.1833518850E-01
          0                 4           1             4    7     1      -0.6225906983E-05       4    7    1        -0.3559072393E-03      0.7498778880E-03

    ------------------------------------------------
       NWT REQUIRED            4 OUTER ITERATIONS 
       AND A TOTAL OF          7 INNER ITERATIONS.
    ------------------------------------------------

 NO OUTPUT CONTROL FOR STRESS PERIOD   25   TIME STEP   18
 
 SOLVING FOR HEAD 
                                                   Max.-Head-Change                         Max.-Flux-Residual
  Residual-Control   Outer-Iter.   Inner-Iter.     Column Row Layer    Maximum-Head-Change  Column Row Layer    Maximum-Flux-Residual          L2-NORM 
          0                 1           2             4    7     1       0.2333617983E-01       4    7    1         0.1227686156E+01      0.2662378014E+01
          0                 2           2             4    7     1      -0.2269297297E-02       4    7    1        -0.1227694470E+00      0.2603806890E+00
          0                 3           2             4    7     1       0.1545525679E-03       4    7    1         0.8593856987E-02      0.1815556185E-01
          0                 4           1             4    7     1      -0.6149092236E-05       4    7    1        -0.3514892896E-03      0.7425410909E-03

    ------------------------------------------------
       NWT REQUIRED            4 OUTER ITERATIONS 
       AND A TOTAL OF          7 INNER ITERATIONS.
    ------------------------------------------------

 NO OUTPUT CONTROL FOR STRESS PERIOD   25   TIME STEP   19
 
 SOLVING FOR HEAD 
                                                   Max.-Head-Change                         Max.-Flux-Residual
  Residual-Control   Outer-Iter.   Inner-Iter.     Column Row Layer    Maximum-Head-Change  Column Row Layer    Maximum-Flux-Residual          L2-NORM 
          0                 1           2             4    7     1       0.2305013662E-01       4    7    1         0.1212543972E+01      0.2636929253E+01
          0                 2           2             4    7     1      -0.2241477278E-02       4    7    1        -0.1212552066E+00      0.2578542196E+00
          0                 3           2             4    7     1       0.1526579866E-03       4    7    1         0.8487860317E-02      0.1797901056E-01
          0                 4           1             4    7     1      -0.6073709332E-05       4    7    1        -0.3471539962E-03      0.7353143463E-03

    ------------------------------------------------
       NWT REQUIRED            4 OUTER ITERATIONS 
       AND A TOTAL OF          7 INNER ITERATIONS.
    ------------------------------------------------

 NO OUTPUT CONTROL FOR STRESS PERIOD   25   TIME STEP   20
 
 SOLVING FOR HEAD 
                                                   Max.-Head-Change                         Max.-Flux-Residual
  Residual-Control   Outer-Iter.   Inner-Iter.     Column Row Layer    Maximum-Head-Change  Column Row Layer    Maximum-Flux-Residual          L2-NORM 
          0                 1           2             4    7     1       0.2276925616E-01       4    7    1         0.1197676202E+01      0.2611877668E+01
          0                 2           2             4    7     1      -0.2214159510E-02       4    7    1        -0.1197684081E+00      0.2553692475E+00
          0                 3           2             4    7     1       0.1507976059E-03       4    7    1         0.8383784589E-02      0.1780536232E-01
          0                 4           1             4    7     1      -0.5999687811E-05       4    7    1        -0.3428973100E-03      0.7282083100E-03

    ------------------------------------------------
       NWT REQUIRED            4 OUTER ITERATIONS 
       AND A TOTAL OF          7 INNER ITERATIONS.
    ------------------------------------------------

 NO OUTPUT CONTROL FOR STRESS PERIOD   25   TIME STEP   21
 
 SOLVING FOR HEAD 
                                                   Max.-Head-Change                         Max.-Flux-Residual
  Residual-Control   Outer-Iter.   Inner-Iter.     Column Row Layer    Maximum-Head-Change  Column Row Layer    Maximum-Flux-Residual          L2-NORM 
          0                 1           2             4    7     1       0.2249354756E-01       4    7    1         0.1183083414E+01      0.2587219122E+01
          0                 2           2             4    7     1      -0.2187344878E-02       4    7    1        -0.1183091085E+00      0.2529254120E+00
          0                 3           2             4    7     1       0.1489714846E-03       4    7    1         0.8281633759E-02      0.1763461903E-01
          0                 4           1             4    7     1      -0.5927029516E-05       4    7    1        -0.3387193228E-03      0.7212369948E-03

    ------------------------------------------------
       NWT REQUIRED            4 OUTER ITERATIONS 
       AND A TOTAL OF          7 INNER ITERATIONS.
    ------------------------------------------------

 NO OUTPUT CONTROL FOR STRESS PERIOD   25   TIME STEP   22
 
 SOLVING FOR HEAD 
                                                   Max.-Head-Change                         Max.-Flux-Residual
  Residual-Control   Outer-Iter.   Inner-Iter.     Column Row Layer    Maximum-Head-Change  Column Row Layer    Maximum-Flux-Residual          L2-NORM 
          0                 1           2             4    7     1       0.2222288278E-01       4    7    1         0.1168758775E+01      0.2562955970E+01
          0                 2           2             4    7     1      -0.2161020913E-02       4    7    1        -0.1168766246E+00      0.2505226671E+00
          0                 3           2             4    7     1       0.1471787758E-03       4    7    1         0.8181360059E-02      0.1746676486E-01
          0                 4           1             4    7     1      -0.5855700714E-05       4    7    1        -0.3346181243E-03      0.7143633210E-03

    ------------------------------------------------
       NWT REQUIRED            4 OUTER ITERATIONS 
       AND A TOTAL OF          7 INNER ITERATIONS.
    ------------------------------------------------

 NO OUTPUT CONTROL FOR STRESS PERIOD   25   TIME STEP   23
 
 SOLVING FOR HEAD 
                                                   Max.-Head-Change                         Max.-Flux-Residual
  Residual-Control   Outer-Iter.   Inner-Iter.     Column Row Layer    Maximum-Head-Change  Column Row Layer    Maximum-Flux-Residual          L2-NORM 
          0                 1           2             4    7     1       0.2195713594E-01       4    7    1         0.1154695648E+01      0.2539065102E+01
          0                 2           2             4    7     1      -0.2135175362E-02       4    7    1        -0.1154702924E+00      0.2481585361E+00
          0                 3           2             4    7     1       0.1454186435E-03       4    7    1         0.8082916924E-02      0.1730163237E-01
          0                 4           1             4    7     1      -0.5785668134E-05       4    7    1        -0.3305917980E-03      0.7077044499E-03

    ------------------------------------------------
       NWT REQUIRED            4 OUTER ITERATIONS 
       AND A TOTAL OF          7 INNER ITERATIONS.
    ------------------------------------------------

 NO OUTPUT CONTROL FOR STRESS PERIOD   25   TIME STEP   24
 
 SOLVING FOR HEAD 
                                                   Max.-Head-Change                         Max.-Flux-Residual
  Residual-Control   Outer-Iter.   Inner-Iter.     Column Row Layer    Maximum-Head-Change  Column Row Layer    Maximum-Flux-Residual          L2-NORM 
          0                 1           2             4    7     1       0.2169618480E-01       4    7    1         0.1140887508E+01      0.2515547682E+01
          0                 2           2             4    7     1      -0.2109796329E-02       4    7    1        -0.1140894595E+00      0.2458329604E+00
          0                 3           2             4    7     1       0.1436902793E-03       4    7    1         0.7986258773E-02      0.1713920636E-01
          0                 4           1             4    7     1      -0.5716899541E-05       4    7    1        -0.3266384756E-03      0.7009840693E-03

    ------------------------------------------------
       NWT REQUIRED            4 OUTER ITERATIONS 
       AND A TOTAL OF          7 INNER ITERATIONS.
    ------------------------------------------------

 NO OUTPUT CONTROL FOR STRESS PERIOD   25   TIME STEP   25
 
 SOLVING FOR HEAD 
                                                   Max.-Head-Change                         Max.-Flux-Residual
  Residual-Control   Outer-Iter.   Inner-Iter.     Column Row Layer    Maximum-Head-Change  Column Row Layer    Maximum-Flux-Residual          L2-NORM 
          0                 1           2             4    7     1       0.2143990732E-01       4    7    1         0.1127328016E+01      0.2492387195E+01
          0                 2           2             4    7     1      -0.2084872380E-02       4    7    1        -0.1127334920E+00      0.2435751422E+00
          0                 3           2             4    7     1       0.1419929034E-03       4    7    1         0.7891341172E-02      0.1698150917E-01
          0                 4           1             4    7     1      -0.5649364194E-05       4    7    1        -0.3227563384E-03      0.6945241369E-03

    ------------------------------------------------
       NWT REQUIRED            4 OUTER ITERATIONS 
       AND A TOTAL OF          7 INNER ITERATIONS.
    ------------------------------------------------

 NO OUTPUT CONTROL FOR STRESS PERIOD   25   TIME STEP   26
 
 SOLVING FOR HEAD 
                                                   Max.-Head-Change                         Max.-Flux-Residual
  Residual-Control   Outer-Iter.   Inner-Iter.     Column Row Layer    Maximum-Head-Change  Column Row Layer    Maximum-Flux-Residual          L2-NORM 
          0                 1           2             4    7     1       0.2118832348E-01       4    7    1         0.1114018128E+01      0.2469560949E+01
          0                 2           2             4    7     1      -0.2060404146E-02       4    7    1        -0.1114024854E+00      0.2412903814E+00
          0                 3           2             4    7     1       0.1403265598E-03       4    7    1         0.7798170856E-02      0.1682194935E-01
          0                 4           1             4    7     1      -0.5583063360E-05       4    7    1        -0.3189456534E-03      0.6879854140E-03

    ------------------------------------------------
       NWT REQUIRED            4 OUTER ITERATIONS 
       AND A TOTAL OF          7 INNER ITERATIONS.
    ------------------------------------------------

 NO OUTPUT CONTROL FOR STRESS PERIOD   25   TIME STEP   27
 
 SOLVING FOR HEAD 
                                                   Max.-Head-Change                         Max.-Flux-Residual
  Residual-Control   Outer-Iter.   Inner-Iter.     Column Row Layer    Maximum-Head-Change  Column Row Layer    Maximum-Flux-Residual          L2-NORM 
          0                 1           2             4    7     1       0.2094104483E-01       4    7    1         0.1100937029E+01      0.2447055671E+01
          0                 2           2             4    7     1      -0.2036355126E-02       4    7    1        -0.1100943582E+00      0.2390691654E+00
          0                 3           2             4    7     1       0.1386887634E-03       4    7    1         0.7706602075E-02      0.1666685712E-01
          0                 4           1             4    7     1      -0.5517899066E-05       4    7    1        -0.3152005020E-03      0.6816721248E-03

    ------------------------------------------------
       NWT REQUIRED            4 OUTER ITERATIONS 
       AND A TOTAL OF          7 INNER ITERATIONS.
    ------------------------------------------------

 NO OUTPUT CONTROL FOR STRESS PERIOD   25   TIME STEP   28
 
 SOLVING FOR HEAD 
                                                   Max.-Head-Change                         Max.-Flux-Residual
  Residual-Control   Outer-Iter.   Inner-Iter.     Column Row Layer    Maximum-Head-Change  Column Row Layer    Maximum-Flux-Residual          L2-NORM 
          0                 1           2             4    7     1       0.2069823756E-01       4    7    1         0.1088093738E+01      0.2424896256E+01
          0                 2           2             4    7     1      -0.2012741064E-02       4    7    1        -0.1088100125E+00      0.2368835346E+00
          0                 3           2             4    7     1       0.1370805853E-03       4    7    1         0.7616697995E-02      0.1651425507E-01
          0                 4           1             4    7     1      -0.5453912872E-05       4    7    1        -0.3115234117E-03      0.6754039579E-03

    ------------------------------------------------
       NWT REQUIRED            4 OUTER ITERATIONS 
       AND A TOTAL OF          7 INNER ITERATIONS.
    ------------------------------------------------

 NO OUTPUT CONTROL FOR STRESS PERIOD   25   TIME STEP   29
 
 SOLVING FOR HEAD 
                                                   Max.-Head-Change                         Max.-Flux-Residual
  Residual-Control   Outer-Iter.   Inner-Iter.     Column Row Layer    Maximum-Head-Change  Column Row Layer    Maximum-Flux-Residual          L2-NORM 
          0                 1           2             4    7     1       0.2045965123E-01       4    7    1         0.1075474974E+01      0.2403130605E+01
          0                 2           2             4    7     1      -0.1989537596E-02       4    7    1        -0.1075481199E+00      0.2347382260E+00
          0                 3           2             4    7     1       0.1355003673E-03       4    7    1         0.7528365633E-02      0.1636448800E-01
          0                 4           1             4    7     1      -0.5391038927E-05       4    7    1        -0.3079106086E-03      0.6692901596E-03

    ------------------------------------------------
       NWT REQUIRED            4 OUTER ITERATIONS 
       AND A TOTAL OF          7 INNER ITERATIONS.
    ------------------------------------------------

 NO OUTPUT CONTROL FOR STRESS PERIOD   25   TIME STEP   30



 STREAM LISTING     PERIOD     25   STEP       30

 LAYER ROW COL. STREAM  RCH.  FLOW INTO     FLOW TO   FLOW OUT OF   OVRLND.     DIRECT     STREAM       STREAM     STREAM     STREAM   STREAMBED  STREAMBED
                SEG.NO.  NO.  STRM. RCH.    AQUIFER    STRM. RCH.    RUNOFF     PRECIP       ET          HEAD       DEPTH      WIDTH   CONDCTNC.   GRADIENT

   1    1    1     1     1    7.4712E+00  1.2395E-01   7.3473E+00  0.000E+00  0.000E+00  0.000E+00  1.09386E+03  8.152E-01  7.220E+00  3.249E-02  1.272E+00
   1    2    2     1     2    7.3473E+00  1.9029E-01   7.1570E+00  0.000E+00  0.000E+00  0.000E+00  1.08887E+03  8.094E-01  7.136E+00  4.995E-02  1.270E+00
   1    3    3     1     3    7.1570E+00  1.6067E-01   6.9963E+00  0.000E+00  0.000E+00  0.000E+00  1.08322E+03  8.029E-01  7.042E+00  4.225E-02  1.268E+00
   1    3    4     1     4    6.9963E+00  1.4674E-01   6.8496E+00  0.000E+00  0.000E+00  0.000E+00  1.07821E+03  7.979E-01  6.962E+00  3.864E-02  1.266E+00
   1    4    5     2     1    4.8496E+00  2.6862E-01   4.5810E+00  0.000E+00  0.000E+00  0.000E+00  1.07238E+03  4.439E-01  1.200E+01  7.800E-02  1.148E+00
   1    5    6     2     2    4.5810E+00  2.0582E-01   4.3752E+00  0.000E+00  0.000E+00  0.000E+00  1.06694E+03  4.303E-01  1.200E+01  6.000E-02  1.143E+00
   1    6    6     2     3    4.3752E+00  2.0510E-01   4.1701E+00  0.000E+00  0.000E+00  0.000E+00  1.06221E+03  4.184E-01  1.200E+01  6.000E-02  1.139E+00
   1    7    6     2     4    4.1701E+00  2.0437E-01   3.9657E+00  0.000E+00  0.000E+00  0.000E+00  1.05748E+03  4.062E-01  1.200E+01  6.000E-02  1.135E+00
   1    8    6     2     5    3.9657E+00  2.0363E-01   3.7620E+00  0.000E+00  0.000E+00  0.000E+00  1.05275E+03  3.939E-01  1.200E+01  6.000E-02  1.131E+00
   1    3    5     3     1    2.0000E+00  2.8252E-01   1.7175E+00  0.000E+00  0.000E+00  0.000E+00  1.07555E+03  1.909E+00  9.636E+00  7.227E-02  1.955E+00
   1    3    6     3     2    1.7175E+00  2.4905E-01   1.4684E+00  0.000E+00  0.000E+00  0.000E+00  1.07264E+03  1.727E+00  8.909E+00  6.682E-02  1.864E+00
   1    3    7     3     3    1.4684E+00  1.9718E-01   1.2712E+00  0.000E+00  0.000E+00  0.000E+00  1.06987E+03  1.555E+00  8.218E+00  5.547E-02  1.777E+00
   1    4    8     3     4    1.2712E+00  2.2567E-01   1.0456E+00  0.000E+00  0.000E+00  0.000E+00  1.06682E+03  1.364E+00  7.455E+00  6.709E-02  1.682E+00
   1    5    8     3     5    1.0456E+00  1.5790E-01   8.8768E-01  0.000E+00  0.000E+00  0.000E+00  1.06362E+03  1.164E+00  6.655E+00  4.991E-02  1.582E+00
   1    6    8     3     6    8.8768E-01  5.5980E-02   8.3170E-01  0.000E+00  0.000E+00  0.000E+00  1.06158E+03  1.036E+00  6.145E+00  1.844E-02  1.518E+00
   1    5   10     4     1    1.0000E+01  9.0919E-02   9.9091E+00  0.000E+00  0.000E+00  0.000E+00  1.07836E+03  6.368E-01  1.000E+01  2.500E-02  1.212E+00
   1    5    9     4     2    9.9091E+00  1.8158E-01   9.7275E+00  0.000E+00  0.000E+00  0.000E+00  1.07154E+03  6.315E-01  1.000E+01  5.000E-02  1.211E+00
   1    6    8     4     3    9.7275E+00  1.2689E-01   9.6006E+00  0.000E+00  0.000E+00  0.000E+00  1.06381E+03  6.256E-01  1.000E+01  3.500E-02  1.209E+00
   1    6    8     5     1    1.0432E+01  2.2686E-01   1.0205E+01  0.000E+00  0.000E+00  0.000E+00  1.05868E+03  6.790E-01  1.542E+01  6.166E-02  1.226E+00
   1    7    7     5     2    1.0205E+01  2.7894E-01   9.9265E+00  0.000E+00  0.000E+00  0.000E+00  1.05417E+03  6.732E-01  1.519E+01  7.594E-02  1.224E+00
   1    8    7     5     3    9.9265E+00  1.9221E-01   9.7343E+00  0.000E+00  0.000E+00  0.000E+00  1.04992E+03  6.676E-01  1.497E+01  5.241E-02  1.223E+00
   1    8    6     5     4    9.7343E+00  1.3577E-01   9.5985E+00  0.000E+00  0.000E+00  0.000E+00  1.04691E+03  6.637E-01  1.482E+01  3.706E-02  1.221E+00
   1    9    6     6     1    1.3361E+01  2.3005E-01   1.3131E+01  0.000E+00  0.000E+00  0.000E+00  1.04356E+03  8.341E-01  1.200E+01  6.000E-02  1.278E+00
   1   10    7     6     2    1.3131E+01  2.2952E-01   1.2901E+01  0.000E+00  0.000E+00  0.000E+00  1.03901E+03  8.254E-01  1.200E+01  6.000E-02  1.275E+00
   1   11    7     6     3    1.2901E+01  2.2900E-01   1.2672E+01  0.000E+00  0.000E+00  0.000E+00  1.03445E+03  8.166E-01  1.200E+01  6.000E-02  1.272E+00
   1   12    7     6     4    1.2672E+01  2.2847E-01   1.2444E+01  0.000E+00  0.000E+00  0.000E+00  1.02990E+03  8.078E-01  1.200E+01  6.000E-02  1.269E+00
   1   13    7     6     5    1.2444E+01  5.8820E-04   1.2443E+01  0.000E+00  0.000E+00  0.000E+00  1.02671E+03  8.034E-01  1.200E+01  2.400E-02  8.169E-03
   1   14    9     7     1    1.5000E+02  1.3773E+00   1.4862E+02  0.000E+00  0.000E+00  0.000E+00  1.03987E+03  2.288E+00  5.529E+01  5.593E-01  8.208E-01
   1   13    8     7     2    1.4862E+02  1.9588E+00   1.4666E+02  0.000E+00  0.000E+00  0.000E+00  1.03478E+03  2.279E+00  5.525E+01  6.147E-01  1.062E+00
   1   13    7     7     3    1.4666E+02  1.6754E+00   1.4499E+02  0.000E+00  0.000E+00  0.000E+00  1.02969E+03  2.269E+00  5.521E+01  5.584E-01  1.000E+00
   1   13    6     8     1    1.5743E+02  1.0582E+00   1.5637E+02  0.000E+00  0.000E+00  0.000E+00  1.02474E+03  2.865E+00  4.154E+01  4.233E-01  8.333E-01
   1   13    5     8     2    1.5637E+02  3.1694E-01   1.5606E+02  0.000E+00  0.000E+00  0.000E+00  1.01849E+03  2.860E+00  4.147E+01  4.226E-01  2.500E-01
   1   13    4     8     3    1.5606E+02 -1.9292E+00   1.5799E+02  0.000E+00  0.000E+00  0.000E+00  1.01224E+03  2.866E+00  4.155E+01  4.234E+00 -1.519E-01
   1   13    3     8     4    1.5799E+02 -3.4024E+00   1.6139E+02  0.000E+00  0.000E+00  0.000E+00  1.00601E+03  2.884E+00  4.181E+01  4.261E+00 -2.662E-01
   1   13    2     8     5    1.6139E+02 -2.5208E+00   1.6391E+02  0.000E+00  0.000E+00  0.000E+00  9.99779E+02  2.904E+00  4.210E+01  4.290E+00 -1.958E-01
   1   13    1     8     6    1.6391E+02 -1.9658E+00   1.6587E+02  0.000E+00  0.000E+00  0.000E+00  9.94794E+02  2.919E+00  4.232E+01  2.588E+00 -2.532E-01
   1    8    6     9     1    0.0000E+00  0.0000E+00   0.0000E+00  0.000E+00  0.000E+00  0.000E+00  1.07875E+03  0.000E+00  4.000E+00  0.000E+00  1.000E+00
   1    8    5     9     2    0.0000E+00  0.0000E+00   0.0000E+00  0.000E+00  0.000E+00  0.000E+00  1.07825E+03  0.000E+00  4.000E+00  0.000E+00  1.000E+00





UNSATURATED ZONE PACKAGE VOLUMETRIC BUDGET FOR  TIME STEP    30 STRESS PERIOD   25
  ------------------------------------------------------------------------------



     CUMULATIVE VOLUMES      L**3       RATES FOR THIS TIME STEP      L**3/T
     ------------------                 ------------------------

           IN:                                      IN:
           ---                                      ---
        INFILTRATION =  1244533847.6790          INFILTRATION =           4.4075

          OUT:                                     OUT:
          ----                                     ----
              UZF ET =   998818889.7028                UZF ET =           0.7250
        UZF RECHARGE =     3868073.4471          UZF RECHARGE =           0.0829

            IN - OUT =   241846884.5291              IN - OUT =           3.5996

          STORAGE:                                 STORAGE:
          --------                                 --------
      STORAGE CHANGE =   241846869.3860        STORAGE CHANGE =           3.5996

 PERCENT DISCREPANCY IS DIFFERENCE BETWEEN IN-OUT MINUS CHANGE IN STORAGE
 DIVIDED BY THE AVERAGE OF IN AND OUT TIMES 100

 PERCENT DISCREPANCY =           0.00     PERCENT DISCREPANCY =           0.00






1
  VOLUMETRIC BUDGET FOR AGRICULTURAL FIELDS AT  END OF TIME STEP   30, STRESS PERIOD  25
  ------------------------------------------------------------------------------

     CUMULATIVE VOLUMES      L**3       RATES FOR THIS TIME STEP      L**3/T
     ------------------                 ------------------------

           IN:                                      IN:
           ---                                      ---
               AG WELLS  =   599544832.0000                 AG WELLS  =           0.0000
      DIVERSION SEGMENTS =   366911456.0000        DIVERSION SEGMENTS =           0.0000
           GW IRRIGATION =           0.0000             GW IRRIGATION =           0.0000
           SW IRRIGATION =           0.0000             SW IRRIGATION =           0.0000
        SYSTEM LOSSES GW =           0.0000          SYSTEM LOSSES GW =           0.0000
        SYSTEM LOSSES SW =           0.0000          SYSTEM LOSSES SW =           0.0000

                TOTAL IN =   966456320.0000                  TOTAL IN =           0.0000

          OUT:                                     OUT:
          ----                                     ----
               AG WELLS  =           0.0000                 AG WELLS  =           0.0000
      DIVERSION SEGMENTS =           0.0000        DIVERSION SEGMENTS =           0.0000
           GW IRRIGATION =   599544832.0000             GW IRRIGATION =           0.0000
           SW IRRIGATION =   366918816.0000             SW IRRIGATION =           0.0000
        SYSTEM LOSSES GW =           0.0000          SYSTEM LOSSES GW =           0.0000
        SYSTEM LOSSES SW =           0.0000          SYSTEM LOSSES SW =           0.0000

               TOTAL OUT =   966463616.0000                 TOTAL OUT =           0.0000

                IN - OUT =       -7296.0000                  IN - OUT =           0.0000

     PERCENT DISCREPANCY =          -0.00         PERCENT DISCREPANCY =           0.00



1
  VOLUMETRIC BUDGET FOR ENTIRE MODEL AT END OF TIME STEP   30, STRESS PERIOD  25
  ------------------------------------------------------------------------------

     CUMULATIVE VOLUMES      L**3       RATES FOR THIS TIME STEP      L**3/T
     ------------------                 ------------------------

           IN:                                      IN:
           ---                                      ---
             STORAGE     =   879342208.0000               STORAGE     =           6.2479
       CONSTANT HEAD     =           0.0000         CONSTANT HEAD     =           0.0000
     HEAD DEP BOUNDS     =    18209972.0000       HEAD DEP BOUNDS     =           0.2886
      STREAM LEAKAGE     =   740897088.0000        STREAM LEAKAGE     =          11.4149
        UZF RECHARGE     =     3868074.0000          UZF RECHARGE     =       8.2886E-02
               GW ET     =           0.0000                 GW ET     =           0.0000
     SURFACE LEAKAGE     =           0.0000       SURFACE LEAKAGE     =           0.0000
           AG WELLS      =           0.0000             AG WELLS      =           0.0000

                TOTAL IN =  1642317312.0000                  TOTAL IN =          18.0343

          OUT:                                     OUT:
          ----                                     ----
             STORAGE     =   380814144.0000               STORAGE     =           7.9290
       CONSTANT HEAD     =           0.0000         CONSTANT HEAD     =           0.0000
     HEAD DEP BOUNDS     =    18194540.0000       HEAD DEP BOUNDS     =           0.2870
      STREAM LEAKAGE     =   643769408.0000        STREAM LEAKAGE     =           9.8182
        UZF RECHARGE     =           0.0000          UZF RECHARGE     =           0.0000
               GW ET     =           0.0000                 GW ET     =           0.0000
     SURFACE LEAKAGE     =           0.0000       SURFACE LEAKAGE     =           0.0000
           AG WELLS      =   599544832.0000             AG WELLS      =           0.0000

               TOTAL OUT =  1642322944.0000                 TOTAL OUT =          18.0342

                IN - OUT =       -5632.0000                  IN - OUT =       9.5367E-06

     PERCENT DISCREPANCY =          -0.00         PERCENT DISCREPANCY =           0.00






         TIME SUMMARY AT END OF TIME STEP   30 IN STRESS PERIOD   25
                    SECONDS     MINUTES      HOURS       DAYS        YEARS
                    -----------------------------------------------------------
   TIME STEP LENGTH  87667.      1461.1      24.352      1.0147     2.77799E-03
 STRESS PERIOD TIME 2.63000E+06  43833.      730.56      30.440     8.33397E-02
         TOTAL TIME 6.32067E+07 1.05345E+06  17557.      731.56      2.0029    
1
1
                            STRESS PERIOD NO.   26, LENGTH =   2630000.    
                            -----------------------------------------------

                              NUMBER OF TIME STEPS =    30

                               MULTIPLIER FOR DELT =     1.000

                            INITIAL TIME STEP SIZE =   87666.66    

 REUSING NON-PARAMETER GHB CELLS FROM LAST STRESS PERIOD

      2 GHB CELLS

 REUSING STREAM SEGMENT DATA FROM LAST STRESS PERIOD



            AREAL INFILTRATION RATE
 READING ON UNIT   19 WITH FORMAT: (10F4.0)            

            1           2           3           4           5           6           7           8           9          10
 ........................................................................................................................
   1   1.2000E-09   0.000       0.000       0.000       0.000       0.000       0.000       0.000       0.000       0.000    
   2   2.1000E-09  2.0000E-09  8.0000E-10  8.5000E-09   0.000       0.000       0.000       0.000       0.000       0.000    
   3   5.0000E-10  1.1000E-09  8.8000E-09  5.5000E-09   0.000       0.000       0.000       0.000       0.000       0.000    
   4   8.5000E-09  1.1000E-09  1.1000E-09  1.1000E-09  2.0000E-09   0.000       0.000       0.000       0.000       0.000    
   5   8.5000E-09  1.1000E-09  1.1000E-09  1.1000E-09  1.1000E-09   0.000       0.000       0.000       0.000       0.000    
   6   8.5000E-09  5.2000E-09  2.1000E-09  1.1000E-09  1.5000E-09   0.000       0.000       0.000       0.000       0.000    
   7   8.5000E-09  5.2000E-09  2.1000E-09  1.2000E-09  2.0000E-09   0.000       0.000       0.000       0.000       0.000    
   8   5.0000E-10  5.2000E-09  2.1000E-09  1.2000E-09  5.0000E-09   0.000       0.000       0.000       0.000       0.000    
   9   5.0000E-10  5.2000E-09  2.1000E-09  1.2000E-09  5.0000E-09   0.000       0.000       0.000       0.000       0.000    
  10   5.0000E-10  5.2000E-09  2.1000E-09  1.2000E-09  5.8000E-09   0.000       0.000       0.000       0.000       0.000    
  11   1.0000E-10  1.1000E-09  1.1000E-09  1.2000E-09  5.0000E-09   0.000       0.000       0.000       0.000       0.000    
  12   1.1000E-09  1.1000E-09  1.1000E-09  1.1000E-09  2.0000E-09   0.000       0.000       0.000       0.000       0.000    
  13   1.1000E-09  2.2000E-09  2.2000E-09  2.1000E-09  1.0000E-09   0.000       0.000       0.000       0.000       0.000    
  14   2.0000E-10  5.5000E-09  5.5000E-09  5.2000E-09  1.0000E-09   0.000       0.000       0.000       0.000       0.000    
  15    0.000      8.8000E-09  8.8000E-09   0.000       0.000       0.000       0.000       0.000       0.000       0.000    

                  ET RATE =  5.000000E-10

 USING ET EXTINCTION DEPTH FROM PREVIOUS STRESS PERIOD. CURRENT PERIOD IS:      26

 USING EXTINCTION WATER CONTENT FROM PREVIOUS STRESS PERIOD. CURRENT PERIOD IS:      26

 USING AIR ENTRY PRESSURE FROM PREVIOUS STRESS PERIOD. CURRENT PERIOD IS:      26

 USING ROOT PRESSURE HEAD FROM PREVIOUS STRESS PERIOD. CURRENT PERIOD IS:      26

 USING ROOT ACTIVITY FROM PREVIOUS STRESS PERIOD. CURRENT PERIOD IS:      26

 PROCESSING AG STRESS PERIOD DATA

 READING AG STRESS PERIOD DATA

 READING IRRIGATION SEGMENT

 READING IRRIGATION WELL

 READING SUPPLEMENTAL WELL

 END PROCESSING AG STRESS PERIOD DATA OPTIONS
 
 SOLVING FOR HEAD 
                                                   Max.-Head-Change                         Max.-Flux-Residual
  Residual-Control   Outer-Iter.   Inner-Iter.     Column Row Layer    Maximum-Head-Change  Column Row Layer    Maximum-Flux-Residual          L2-NORM 
          0                 1           2             4    7     1       0.2022531331E-01       4    7    1         0.1063082366E+01      0.2382445827E+01
          0                 2           2             4    7     1      -0.1966747397E-02       4    7    1        -0.1063088435E+00      0.2327023225E+00
          0                 3           2             4    7     1       0.1339482910E-03       4    7    1         0.7441616397E-02      0.1622231130E-01
          0                 4           1             4    7     1      -0.5329285518E-05       4    7    1        -0.3043625684E-03      0.6634577871E-03

    ------------------------------------------------
       NWT REQUIRED            4 OUTER ITERATIONS 
       AND A TOTAL OF          7 INNER ITERATIONS.
    ------------------------------------------------

 NO OUTPUT CONTROL FOR STRESS PERIOD   26   TIME STEP    1
 
 SOLVING FOR HEAD 
                                                   Max.-Head-Change                         Max.-Flux-Residual
  Residual-Control   Outer-Iter.   Inner-Iter.     Column Row Layer    Maximum-Head-Change  Column Row Layer    Maximum-Flux-Residual          L2-NORM 
          0                 1           2             4    7     1       0.1999499639E-01       4    7    1         0.1050902723E+01      0.2358962075E+01
          0                 2           2             4    7     1      -0.1944348270E-02       4    7    1        -0.1050908639E+00      0.2303839468E+00
          0                 3           2             4    7     1       0.1324228469E-03       4    7    1         0.7356357921E-02      0.1606051533E-01
          0                 4           1             4    7     1      -0.5268591398E-05       4    7    1        -0.3008754834E-03      0.6568559124E-03

    ------------------------------------------------
       NWT REQUIRED            4 OUTER ITERATIONS 
       AND A TOTAL OF          7 INNER ITERATIONS.
    ------------------------------------------------

 NO OUTPUT CONTROL FOR STRESS PERIOD   26   TIME STEP    2
 
 SOLVING FOR HEAD 
                                                   Max.-Head-Change                         Max.-Flux-Residual
  Residual-Control   Outer-Iter.   Inner-Iter.     Column Row Layer    Maximum-Head-Change  Column Row Layer    Maximum-Flux-Residual          L2-NORM 
          0                 1           2             4    7     1       0.1976873723E-01       4    7    1         0.1038938875E+01      0.2337968467E+01
          0                 2           2             4    7     1      -0.1922343842E-02       4    7    1        -0.1038944643E+00      0.2283166156E+00
          0                 3           2             4    7     1       0.1309242816E-03       4    7    1         0.7272610067E-02      0.1591621657E-01
          0                 4           1             4    7     1      -0.5208966584E-05       4    7    1        -0.2974501936E-03      0.6509479825E-03

    ------------------------------------------------
       NWT REQUIRED            4 OUTER ITERATIONS 
       AND A TOTAL OF          7 INNER ITERATIONS.
    ------------------------------------------------

 NO OUTPUT CONTROL FOR STRESS PERIOD   26   TIME STEP    3
 
 SOLVING FOR HEAD 
                                                   Max.-Head-Change                         Max.-Flux-Residual
  Residual-Control   Outer-Iter.   Inner-Iter.     Column Row Layer    Maximum-Head-Change  Column Row Layer    Maximum-Flux-Residual          L2-NORM 
          0                 1           2             4    7     1       0.1954643476E-01       4    7    1         0.1027185416E+01      0.2317415882E+01
          0                 2           2             4    7     1      -0.1900724291E-02       4    7    1        -0.1027191041E+00      0.2262942409E+00
          0                 3           2             4    7     1       0.1294519245E-03       4    7    1         0.7190334951E-02      0.1577505041E-01
          0                 4           1             4    7     1      -0.5150384941E-05       4    7    1        -0.2940851318E-03      0.6451819107E-03

    ------------------------------------------------
       NWT REQUIRED            4 OUTER ITERATIONS 
       AND A TOTAL OF          7 INNER ITERATIONS.
    ------------------------------------------------

 NO OUTPUT CONTROL FOR STRESS PERIOD   26   TIME STEP    4
 
 SOLVING FOR HEAD 
                                                   Max.-Head-Change                         Max.-Flux-Residual
  Residual-Control   Outer-Iter.   Inner-Iter.     Column Row Layer    Maximum-Head-Change  Column Row Layer    Maximum-Flux-Residual          L2-NORM 
          0                 1           2             4    7     1       0.1932785881E-01       4    7    1         0.1015629797E+01      0.2297167687E+01
          0                 2           2             4    7     1      -0.1879467218E-02       4    7    1        -0.1015635282E+00      0.2243027493E+00
          0                 3           1             4    7     1       0.1280042549E-03       4    7    1         0.7109444756E-02      0.1563606111E-01
          0                 4           1             4    7     1      -0.5092788099E-05       4    7    1        -0.2907767066E-03      0.6394992151E-03

    ------------------------------------------------
       NWT REQUIRED            4 OUTER ITERATIONS 
       AND A TOTAL OF          6 INNER ITERATIONS.
    ------------------------------------------------

 NO OUTPUT CONTROL FOR STRESS PERIOD   26   TIME STEP    5
 
 SOLVING FOR HEAD 
                                                   Max.-Head-Change                         Max.-Flux-Residual
  Residual-Control   Outer-Iter.   Inner-Iter.     Column Row Layer    Maximum-Head-Change  Column Row Layer    Maximum-Flux-Residual          L2-NORM 
          0                 1           2             4    7     1       0.1911304982E-01       4    7    1         0.1004274702E+01      0.2277215194E+01
          0                 2           2             4    7     1      -0.1858576559E-02       4    7    1        -0.1004280052E+00      0.2223413807E+00
          0                 3           1             4    7     1       0.1265815338E-03       4    7    1         0.7029958227E-02      0.1549918758E-01
          0                 4           1             4    7     1      -0.5036181815E-05       4    7    1        -0.2875257201E-03      0.6338955845E-03

    ------------------------------------------------
       NWT REQUIRED            4 OUTER ITERATIONS 
       AND A TOTAL OF          6 INNER ITERATIONS.
    ------------------------------------------------

 NO OUTPUT CONTROL FOR STRESS PERIOD   26   TIME STEP    6
 
 SOLVING FOR HEAD 
                                                   Max.-Head-Change                         Max.-Flux-Residual
  Residual-Control   Outer-Iter.   Inner-Iter.     Column Row Layer    Maximum-Head-Change  Column Row Layer    Maximum-Flux-Residual          L2-NORM 
          0                 1           2             4    7     1       0.1890178218E-01       4    7    1         0.9931076085E+00      0.2257547937E+01
          0                 2           2             4    7     1      -0.1838030361E-02       4    7    1        -0.9931128273E-01      0.2204088341E+00
          0                 3           1             4    7     1       0.1251822695E-03       4    7    1         0.6951787744E-02      0.1536432495E-01
          0                 4           1             4    7     1      -0.4980508295E-05       4    7    1        -0.2843285324E-03      0.6283758214E-03

    ------------------------------------------------
       NWT REQUIRED            4 OUTER ITERATIONS 
       AND A TOTAL OF          6 INNER ITERATIONS.
    ------------------------------------------------

 NO OUTPUT CONTROL FOR STRESS PERIOD   26   TIME STEP    7
 
 SOLVING FOR HEAD 
                                                   Max.-Head-Change                         Max.-Flux-Residual
  Residual-Control   Outer-Iter.   Inner-Iter.     Column Row Layer    Maximum-Head-Change  Column Row Layer    Maximum-Flux-Residual          L2-NORM 
          0                 1           2             4    7     1       0.1869424094E-01       4    7    1         0.9821387504E+00      0.2238174234E+01
          0                 2           2             4    7     1      -0.1817846622E-02       4    7    1        -0.9821438419E-01      0.2185059546E+00
          0                 3           1             4    7     1       0.1238076885E-03       4    7    1         0.6875004935E-02      0.1523153697E-01
          0                 4           1             4    7     1      -0.4925816928E-05       4    7    1        -0.2811881095E-03      0.6229552453E-03

    ------------------------------------------------
       NWT REQUIRED            4 OUTER ITERATIONS 
       AND A TOTAL OF          6 INNER ITERATIONS.
    ------------------------------------------------

 NO OUTPUT CONTROL FOR STRESS PERIOD   26   TIME STEP    8
 
 SOLVING FOR HEAD 
                                                   Max.-Head-Change                         Max.-Flux-Residual
  Residual-Control   Outer-Iter.   Inner-Iter.     Column Row Layer    Maximum-Head-Change  Column Row Layer    Maximum-Flux-Residual          L2-NORM 
          0                 1           2             4    7     1       0.1849006228E-01       4    7    1         0.9713484810E+00      0.2219075868E+01
          0                 2           2             4    7     1      -0.1797989949E-02       4    7    1        -0.9713534488E-01      0.2166308274E+00
          0                 3           1             4    7     1       0.1224553802E-03       4    7    1         0.6799472269E-02      0.1510070333E-01
          0                 4           1             4    7     1      -0.4872012159E-05       4    7    1        -0.2780988298E-03      0.6175880948E-03

    ------------------------------------------------
       NWT REQUIRED            4 OUTER ITERATIONS 
       AND A TOTAL OF          6 INNER ITERATIONS.
    ------------------------------------------------

 NO OUTPUT CONTROL FOR STRESS PERIOD   26   TIME STEP    9
 
 SOLVING FOR HEAD 
                                                   Max.-Head-Change                         Max.-Flux-Residual
  Residual-Control   Outer-Iter.   Inner-Iter.     Column Row Layer    Maximum-Head-Change  Column Row Layer    Maximum-Flux-Residual          L2-NORM 
          0                 1           2             4    7     1       0.1828943918E-01       4    7    1         0.9607471793E+00      0.2200257978E+01
          0                 2           2             4    7     1      -0.1778479121E-02       4    7    1        -0.9607520271E-01      0.2147841475E+00
          0                 3           1             4    7     1       0.1211266231E-03       4    7    1         0.6725262400E-02      0.1497185909E-01
          0                 4           1             4    7     1      -0.4819143953E-05       4    7    1        -0.2750636290E-03      0.6123263030E-03

    ------------------------------------------------
       NWT REQUIRED            4 OUTER ITERATIONS 
       AND A TOTAL OF          6 INNER ITERATIONS.
    ------------------------------------------------

 NO OUTPUT CONTROL FOR STRESS PERIOD   26   TIME STEP   10
 
 SOLVING FOR HEAD 
                                                   Max.-Head-Change                         Max.-Flux-Residual
  Residual-Control   Outer-Iter.   Inner-Iter.     Column Row Layer    Maximum-Head-Change  Column Row Layer    Maximum-Flux-Residual          L2-NORM 
          0                 1           2             4    7     1       0.1809200919E-01       4    7    1         0.9503156064E+00      0.2181699781E+01
          0                 2           2             4    7     1      -0.1759278871E-02       4    7    1        -0.9503203376E-01      0.2129635446E+00
          0                 3           1             4    7     1       0.1198190165E-03       4    7    1         0.6652240662E-02      0.1484484970E-01
          0                 4           1             4    7     1      -0.4767117676E-05       4    7    1        -0.2720770476E-03      0.6071433871E-03

    ------------------------------------------------
       NWT REQUIRED            4 OUTER ITERATIONS 
       AND A TOTAL OF          6 INNER ITERATIONS.
    ------------------------------------------------

 NO OUTPUT CONTROL FOR STRESS PERIOD   26   TIME STEP   11
 
 SOLVING FOR HEAD 
                                                   Max.-Head-Change                         Max.-Flux-Residual
  Residual-Control   Outer-Iter.   Inner-Iter.     Column Row Layer    Maximum-Head-Change  Column Row Layer    Maximum-Flux-Residual          L2-NORM 
          0                 1           2             4    7     1       0.1789796970E-01       4    7    1         0.9400642160E+00      0.2163410224E+01
          0                 2           2             4    7     1      -0.1740412881E-02       4    7    1        -0.9400688342E-01      0.2111833197E+00
          0                 3           1             4    7     1       0.1185341672E-03       4    7    1         0.6580480223E-02      0.1472066030E-01
          0                 4           1             4    7     1      -0.4715997107E-05       4    7    1        -0.2691420468E-03      0.6020489410E-03

    ------------------------------------------------
       NWT REQUIRED            4 OUTER ITERATIONS 
       AND A TOTAL OF          6 INNER ITERATIONS.
    ------------------------------------------------

 NO OUTPUT CONTROL FOR STRESS PERIOD   26   TIME STEP   12
 
 SOLVING FOR HEAD 
                                                   Max.-Head-Change                         Max.-Flux-Residual
  Residual-Control   Outer-Iter.   Inner-Iter.     Column Row Layer    Maximum-Head-Change  Column Row Layer    Maximum-Flux-Residual          L2-NORM 
          0                 1           2             4    7     1       0.1770689313E-01       4    7    1         0.9299737563E+00      0.2145373979E+01
          0                 2           2             4    7     1      -0.1721826292E-02       4    7    1        -0.9299782661E-01      0.2094020522E+00
          0                 3           1             4    7     1       0.1172683495E-03       4    7    1         0.6509846301E-02      0.1459640115E-01
          0                 4           1             4    7     1      -0.4665633502E-05       4    7    1        -0.2662530992E-03      0.5969800103E-03

    ------------------------------------------------
       NWT REQUIRED            4 OUTER ITERATIONS 
       AND A TOTAL OF          6 INNER ITERATIONS.
    ------------------------------------------------

 NO OUTPUT CONTROL FOR STRESS PERIOD   26   TIME STEP   13
 
 SOLVING FOR HEAD 
                                                   Max.-Head-Change                         Max.-Flux-Residual
  Residual-Control   Outer-Iter.   Inner-Iter.     Column Row Layer    Maximum-Head-Change  Column Row Layer    Maximum-Flux-Residual          L2-NORM 
          0                 1           2             4    7     1       0.1751899861E-01       4    7    1         0.9200520142E+00      0.2127521664E+01
          0                 2           2             4    7     1      -0.1703553520E-02       4    7    1        -0.9200564188E-01      0.2076523173E+00
          0                 3           1             4    7     1       0.1160239029E-03       4    7    1         0.6440393448E-02      0.1447435050E-01
          0                 4           1             4    7     1      -0.4616120114E-05       4    7    1        -0.2634124671E-03      0.5919794649E-03

    ------------------------------------------------
       NWT REQUIRED            4 OUTER ITERATIONS 
       AND A TOTAL OF          6 INNER ITERATIONS.
    ------------------------------------------------

 NO OUTPUT CONTROL FOR STRESS PERIOD   26   TIME STEP   14
 
 SOLVING FOR HEAD 
                                                   Max.-Head-Change                         Max.-Flux-Residual
  Residual-Control   Outer-Iter.   Inner-Iter.     Column Row Layer    Maximum-Head-Change  Column Row Layer    Maximum-Flux-Residual          L2-NORM 
          0                 1           2             4    7     1       0.1733407844E-01       4    7    1         0.9102877155E+00      0.2109925617E+01
          0                 2           2             4    7     1      -0.1685570044E-02       4    7    1        -0.9102920173E-01      0.2059283452E+00
          0                 3           1             4    7     1       0.1147991573E-03       4    7    1         0.6372042702E-02      0.1435410044E-01
          0                 4           1             4    7     1      -0.4567390976E-05       4    7    1        -0.2606169378E-03      0.5870617371E-03

    ------------------------------------------------
       NWT REQUIRED            4 OUTER ITERATIONS 
       AND A TOTAL OF          6 INNER ITERATIONS.
    ------------------------------------------------

 NO OUTPUT CONTROL FOR STRESS PERIOD   26   TIME STEP   15
 
 SOLVING FOR HEAD 
                                                   Max.-Head-Change                         Max.-Flux-Residual
  Residual-Control   Outer-Iter.   Inner-Iter.     Column Row Layer    Maximum-Head-Change  Column Row Layer    Maximum-Flux-Residual          L2-NORM 
          0                 1           2             4    7     1       0.1715206708E-01       4    7    1         0.9006776338E+00      0.2092569987E+01
          0                 2           2             4    7     1      -0.1667869497E-02       4    7    1        -0.9006818359E-01      0.2042286095E+00
          0                 3           1             4    7     1       0.1135936784E-03       4    7    1         0.6304771492E-02      0.1423554278E-01
          0                 4           1             4    7     1      -0.4519428012E-05       4    7    1        -0.2578655349E-03      0.5822065189E-03

    ------------------------------------------------
       NWT REQUIRED            4 OUTER ITERATIONS 
       AND A TOTAL OF          6 INNER ITERATIONS.
    ------------------------------------------------

 NO OUTPUT CONTROL FOR STRESS PERIOD   26   TIME STEP   16
 
 SOLVING FOR HEAD 
                                                   Max.-Head-Change                         Max.-Flux-Residual
  Residual-Control   Outer-Iter.   Inner-Iter.     Column Row Layer    Maximum-Head-Change  Column Row Layer    Maximum-Flux-Residual          L2-NORM 
          0                 1           2             4    7     1       0.1697303293E-01       4    7    1         0.8912256841E+00      0.2075461256E+01
          0                 2           2             4    7     1      -0.1650458516E-02       4    7    1        -0.8912297892E-01      0.2025534551E+00
          0                 3           1             4    7     1       0.1124079195E-03       4    7    1         0.6238607248E-02      0.1411872256E-01
          0                 4           1             4    7     1      -0.4472249872E-05       4    7    1        -0.2551594107E-03      0.5774371010E-03

    ------------------------------------------------
       NWT REQUIRED            4 OUTER ITERATIONS 
       AND A TOTAL OF          6 INNER ITERATIONS.
    ------------------------------------------------

 NO OUTPUT CONTROL FOR STRESS PERIOD   26   TIME STEP   17
 
 SOLVING FOR HEAD 
                                                   Max.-Head-Change                         Max.-Flux-Residual
  Residual-Control   Outer-Iter.   Inner-Iter.     Column Row Layer    Maximum-Head-Change  Column Row Layer    Maximum-Flux-Residual          L2-NORM 
          0                 1           2             4    7     1       0.1679677597E-01       4    7    1         0.8819207875E+00      0.2058587231E+01
          0                 2           2             4    7     1      -0.1633317665E-02       4    7    1        -0.8819247979E-01      0.2009020930E+00
          0                 3           1             4    7     1       0.1112405556E-03       4    7    1         0.6173472349E-02      0.1400354667E-01
          0                 4           1             4    7     1      -0.4425803829E-05       4    7    1        -0.2524953961E-03      0.5727203856E-03

    ------------------------------------------------
       NWT REQUIRED            4 OUTER ITERATIONS 
       AND A TOTAL OF          6 INNER ITERATIONS.
    ------------------------------------------------

 NO OUTPUT CONTROL FOR STRESS PERIOD   26   TIME STEP   18
 
 SOLVING FOR HEAD 
                                                   Max.-Head-Change                         Max.-Flux-Residual
  Residual-Control   Outer-Iter.   Inner-Iter.     Column Row Layer    Maximum-Head-Change  Column Row Layer    Maximum-Flux-Residual          L2-NORM 
          0                 1           2             4    7     1       0.1662323870E-01       4    7    1         0.8727598842E+00      0.2041948954E+01
          0                 2           2             4    7     1      -0.1616441327E-02       4    7    1        -0.8727638026E-01      0.1992741141E+00
          0                 3           1             4    7     1       0.1100912057E-03       4    7    1         0.6109345462E-02      0.1389002068E-01
          0                 4           1             4    7     1      -0.4380074225E-05       4    7    1        -0.2498725839E-03      0.5680826802E-03

    ------------------------------------------------
       NWT REQUIRED            4 OUTER ITERATIONS 
       AND A TOTAL OF          6 INNER ITERATIONS.
    ------------------------------------------------

 NO OUTPUT CONTROL FOR STRESS PERIOD   26   TIME STEP   19
 
 SOLVING FOR HEAD 
                                                   Max.-Head-Change                         Max.-Flux-Residual
  Residual-Control   Outer-Iter.   Inner-Iter.     Column Row Layer    Maximum-Head-Change  Column Row Layer    Maximum-Flux-Residual          L2-NORM 
          0                 1           2             4    7     1       0.1645236289E-01       4    7    1         0.8637399953E+00      0.2025535616E+01
          0                 2           2             4    7     1      -0.1599823845E-02       4    7    1        -0.8637438241E-01      0.1976685737E+00
          0                 3           1             4    7     1       0.1089594842E-03       4    7    1         0.6046205680E-02      0.1377805708E-01
          0                 4           1             4    7     1      -0.4335046324E-05       4    7    1        -0.2472901715E-03      0.5635051343E-03

    ------------------------------------------------
       NWT REQUIRED            4 OUTER ITERATIONS 
       AND A TOTAL OF          6 INNER ITERATIONS.
    ------------------------------------------------

 NO OUTPUT CONTROL FOR STRESS PERIOD   26   TIME STEP   20
 
 SOLVING FOR HEAD 
                                                   Max.-Head-Change                         Max.-Flux-Residual
  Residual-Control   Outer-Iter.   Inner-Iter.     Column Row Layer    Maximum-Head-Change  Column Row Layer    Maximum-Flux-Residual          L2-NORM 
          0                 1           2             4    7     1       0.1628422627E-01       4    7    1         0.8548654146E+00      0.2009350813E+01
          0                 2           2             4    7     1      -0.1583472788E-02       4    7    1        -0.8548691561E-01      0.1960860071E+00
          0                 3           1             4    7     1       0.1078459054E-03       4    7    1         0.5984083037E-02      0.1366770301E-01
          0                 4           1             4    7     1      -0.4290740388E-05       4    7    1        -0.2447493544E-03      0.5589868749E-03

    ------------------------------------------------
       NWT REQUIRED            4 OUTER ITERATIONS 
       AND A TOTAL OF          6 INNER ITERATIONS.
    ------------------------------------------------

 NO OUTPUT CONTROL FOR STRESS PERIOD   26   TIME STEP   21
 
 SOLVING FOR HEAD 
                                                   Max.-Head-Change                         Max.-Flux-Residual
  Residual-Control   Outer-Iter.   Inner-Iter.     Column Row Layer    Maximum-Head-Change  Column Row Layer    Maximum-Flux-Residual          L2-NORM 
          0                 1           2             4    7     1       0.1611876813E-01       4    7    1         0.8461328591E+00      0.1993391695E+01
          0                 2           2             4    7     1      -0.1567382241E-02       4    7    1        -0.8461365159E-01      0.1945259040E+00
          0                 3           1             4    7     1       0.1067500680E-03       4    7    1         0.5922954626E-02      0.1355892140E-01
          0                 4           1             4    7     1      -0.4247139839E-05       4    7    1        -0.2422491898E-03      0.5545283552E-03

    ------------------------------------------------
       NWT REQUIRED            4 OUTER ITERATIONS 
       AND A TOTAL OF          6 INNER ITERATIONS.
    ------------------------------------------------

 NO OUTPUT CONTROL FOR STRESS PERIOD   26   TIME STEP   22
 
 SOLVING FOR HEAD 
                                                   Max.-Head-Change                         Max.-Flux-Residual
  Residual-Control   Outer-Iter.   Inner-Iter.     Column Row Layer    Maximum-Head-Change  Column Row Layer    Maximum-Flux-Residual          L2-NORM 
          0                 1           2             4    7     1       0.1595579457E-01       4    7    1         0.8375318657E+00      0.1977642388E+01
          0                 2           2             4    7     1      -0.1551533343E-02       4    7    1        -0.8375354396E-01      0.1929866678E+00
          0                 3           1             4    7     1       0.1056706873E-03       4    7    1         0.5862747144E-02      0.1345161522E-01
          0                 4           1             4    7     1      -0.4204194827E-05       4    7    1        -0.2397867170E-03      0.5501504672E-03

    ------------------------------------------------
       NWT REQUIRED            4 OUTER ITERATIONS 
       AND A TOTAL OF          6 INNER ITERATIONS.
    ------------------------------------------------

 NO OUTPUT CONTROL FOR STRESS PERIOD   26   TIME STEP   23
 
 SOLVING FOR HEAD 
                                                   Max.-Head-Change                         Max.-Flux-Residual
  Residual-Control   Outer-Iter.   Inner-Iter.     Column Row Layer    Maximum-Head-Change  Column Row Layer    Maximum-Flux-Residual          L2-NORM 
          0                 1           2             4    7     1       0.1579538459E-01       4    7    1         0.8290670115E+00      0.1962106626E+01
          0                 2           2             4    7     1      -0.1535933786E-02       4    7    1        -0.8290705050E-01      0.1914687973E+00
          0                 3           1             4    7     1       0.1046082866E-03       4    7    1         0.5803492664E-02      0.1334576848E-01
          0                 4           1             4    7     1      -0.4161925152E-05       4    7    1        -0.2373632110E-03      0.5458213162E-03

    ------------------------------------------------
       NWT REQUIRED            4 OUTER ITERATIONS 
       AND A TOTAL OF          6 INNER ITERATIONS.
    ------------------------------------------------

 NO OUTPUT CONTROL FOR STRESS PERIOD   26   TIME STEP   24
 
 SOLVING FOR HEAD 
                                                   Max.-Head-Change                         Max.-Flux-Residual
  Residual-Control   Outer-Iter.   Inner-Iter.     Column Row Layer    Maximum-Head-Change  Column Row Layer    Maximum-Flux-Residual          L2-NORM 
          0                 1           2             4    7     1       0.1563735052E-01       4    7    1         0.8207277610E+00      0.1946782488E+01
          0                 2           2             4    7     1      -0.1520565297E-02       4    7    1        -0.8207311762E-01      0.1899717992E+00
          0                 3           1             4    7     1       0.1035616217E-03       4    7    1         0.5745117410E-02      0.1324140618E-01
          0                 4           1             4    7     1      -0.4120280967E-05       4    7    1        -0.2349756378E-03      0.5413901676E-03

    ------------------------------------------------
       NWT REQUIRED            4 OUTER ITERATIONS 
       AND A TOTAL OF          6 INNER ITERATIONS.
    ------------------------------------------------

 NO OUTPUT CONTROL FOR STRESS PERIOD   26   TIME STEP   25
 
 SOLVING FOR HEAD 
                                                   Max.-Head-Change                         Max.-Flux-Residual
  Residual-Control   Outer-Iter.   Inner-Iter.     Column Row Layer    Maximum-Head-Change  Column Row Layer    Maximum-Flux-Residual          L2-NORM 
          0                 1           2             4    7     1       0.1548177499E-01       4    7    1         0.8125190157E+00      0.1931657661E+01
          0                 2           2             4    7     1      -0.1505435932E-02       4    7    1        -0.8125223547E-01      0.1884947089E+00
          0                 3           1             4    7     1       0.1025312412E-03       4    7    1         0.5687655695E-02      0.1313842313E-01
          0                 4           1             4    7     1      -0.4079285294E-05       4    7    1        -0.2326254439E-03      0.5373389083E-03

    ------------------------------------------------
       NWT REQUIRED            4 OUTER ITERATIONS 
       AND A TOTAL OF          6 INNER ITERATIONS.
    ------------------------------------------------

 NO OUTPUT CONTROL FOR STRESS PERIOD   26   TIME STEP   26
 
 SOLVING FOR HEAD 
                                                   Max.-Head-Change                         Max.-Flux-Residual
  Residual-Control   Outer-Iter.   Inner-Iter.     Column Row Layer    Maximum-Head-Change  Column Row Layer    Maximum-Flux-Residual          L2-NORM 
          0                 1           2             4    7     1       0.1532847309E-01       4    7    1         0.8044304285E+00      0.1916738157E+01
          0                 2           2             4    7     1      -0.1492101223E-02       4    7    1        -0.8055202418E-01      0.1870713457E+00
          0                 3           1             4    7     1       0.1016230586E-03       4    7    1         0.5638640687E-02      0.1303921167E-01
          0                 4           1             4    7     1      -0.4043151921E-05       4    7    1        -0.2306207325E-03      0.5332791207E-03

    ------------------------------------------------
       NWT REQUIRED            4 OUTER ITERATIONS 
       AND A TOTAL OF          6 INNER ITERATIONS.
    ------------------------------------------------

 NO OUTPUT CONTROL FOR STRESS PERIOD   26   TIME STEP   27
 
 SOLVING FOR HEAD 
                                                   Max.-Head-Change                         Max.-Flux-Residual
  Residual-Control   Outer-Iter.   Inner-Iter.     Column Row Layer    Maximum-Head-Change  Column Row Layer    Maximum-Flux-Residual          L2-NORM 
          0                 1           2             4    7     1       0.1517266740E-01       4    7    1         0.7963904852E+00      0.1901988946E+01
          0                 2           2             4    7     1      -0.1475376523E-02       4    7    1        -0.7963939365E-01      0.1855980262E+00
          0                 3           1             4    7     1       0.1004840451E-03       4    7    1         0.5574756629E-02      0.1293648451E-01
          0                 4           1             4    7     1      -0.3997833899E-05       4    7    1        -0.2280078857E-03      0.5290946194E-03

    ------------------------------------------------
       NWT REQUIRED            4 OUTER ITERATIONS 
       AND A TOTAL OF          6 INNER ITERATIONS.
    ------------------------------------------------

 NO OUTPUT CONTROL FOR STRESS PERIOD   26   TIME STEP   28
 
 SOLVING FOR HEAD 
                                                   Max.-Head-Change                         Max.-Flux-Residual
  Residual-Control   Outer-Iter.   Inner-Iter.     Column Row Layer    Maximum-Head-Change  Column Row Layer    Maximum-Flux-Residual          L2-NORM 
          0                 1           2             4    7     1       0.1502091783E-01       4    7    1         0.7883738033E+00      0.1887407383E+01
          0                 2           2             4    7     1      -0.1460619190E-02       4    7    1        -0.7883771688E-01      0.1841746045E+00
          0                 3           1             4    7     1       0.9947900256E-04       4    7    1         0.5518639304E-02      0.1283725407E-01

    ------------------------------------------------
       NWT REQUIRED            3 OUTER ITERATIONS 
       AND A TOTAL OF          5 INNER ITERATIONS.
    ------------------------------------------------

 NO OUTPUT CONTROL FOR STRESS PERIOD   26   TIME STEP   29
 
 SOLVING FOR HEAD 
                                                   Max.-Head-Change                         Max.-Flux-Residual
  Residual-Control   Outer-Iter.   Inner-Iter.     Column Row Layer    Maximum-Head-Change  Column Row Layer    Maximum-Flux-Residual          L2-NORM 
          0                 1           2             4    7     1       0.1487162489E-01       4    7    1         0.7804880664E+00      0.1873011497E+01
          0                 2           2             4    7     1      -0.1446100786E-02       4    7    1        -0.7804913485E-01      0.1827694798E+00
          0                 3           1             4    7     1       0.9849023169E-04       4    7    1         0.5463438630E-02      0.1273931085E-01

    ------------------------------------------------
       NWT REQUIRED            3 OUTER ITERATIONS 
       AND A TOTAL OF          5 INNER ITERATIONS.
    ------------------------------------------------

 NO OUTPUT CONTROL FOR STRESS PERIOD   26   TIME STEP   30



 STREAM LISTING     PERIOD     26   STEP       30

 LAYER ROW COL. STREAM  RCH.  FLOW INTO     FLOW TO   FLOW OUT OF   OVRLND.     DIRECT     STREAM       STREAM     STREAM     STREAM   STREAMBED  STREAMBED
                SEG.NO.  NO.  STRM. RCH.    AQUIFER    STRM. RCH.    RUNOFF     PRECIP       ET          HEAD       DEPTH      WIDTH   CONDCTNC.   GRADIENT

   1    1    1     1     1    8.2501E+00  1.3178E-01   8.1183E+00  0.000E+00  0.000E+00  0.000E+00  1.09389E+03  8.424E-01  7.622E+00  3.430E-02  1.281E+00
   1    2    2     1     2    8.1183E+00  2.0241E-01   7.9159E+00  0.000E+00  0.000E+00  0.000E+00  1.08890E+03  8.367E-01  7.537E+00  5.276E-02  1.279E+00
   1    3    3     1     3    7.9159E+00  1.7099E-01   7.7449E+00  0.000E+00  0.000E+00  0.000E+00  1.08325E+03  8.302E-01  7.440E+00  4.464E-02  1.277E+00
   1    3    4     1     4    7.7449E+00  1.5612E-01   7.5888E+00  0.000E+00  0.000E+00  0.000E+00  1.07823E+03  8.244E-01  7.355E+00  4.082E-02  1.275E+00
   1    4    5     2     1    5.5888E+00  2.7178E-01   5.3170E+00  0.000E+00  0.000E+00  0.000E+00  1.07242E+03  4.843E-01  1.200E+01  7.800E-02  1.161E+00
   1    5    6     2     2    5.3170E+00  2.0828E-01   5.1088E+00  0.000E+00  0.000E+00  0.000E+00  1.06698E+03  4.714E-01  1.200E+01  6.000E-02  1.157E+00
   1    6    6     2     3    5.1088E+00  2.0760E-01   4.9012E+00  0.000E+00  0.000E+00  0.000E+00  1.06225E+03  4.600E-01  1.200E+01  6.000E-02  1.153E+00
   1    7    6     2     4    4.9012E+00  2.0691E-01   4.6943E+00  0.000E+00  0.000E+00  0.000E+00  1.05752E+03  4.485E-01  1.200E+01  6.000E-02  1.150E+00
   1    8    6     2     5    4.6943E+00  2.0621E-01   4.4880E+00  0.000E+00  0.000E+00  0.000E+00  1.05280E+03  4.368E-01  1.200E+01  6.000E-02  1.146E+00
   1    3    5     3     1    2.0000E+00  2.8252E-01   1.7175E+00  0.000E+00  0.000E+00  0.000E+00  1.07555E+03  1.909E+00  9.636E+00  7.227E-02  1.955E+00
   1    3    6     3     2    1.7175E+00  2.4905E-01   1.4684E+00  0.000E+00  0.000E+00  0.000E+00  1.07264E+03  1.727E+00  8.909E+00  6.682E-02  1.864E+00
   1    3    7     3     3    1.4684E+00  1.9718E-01   1.2712E+00  0.000E+00  0.000E+00  0.000E+00  1.06987E+03  1.555E+00  8.218E+00  5.547E-02  1.777E+00
   1    4    8     3     4    1.2712E+00  2.2567E-01   1.0456E+00  0.000E+00  0.000E+00  0.000E+00  1.06682E+03  1.364E+00  7.455E+00  6.709E-02  1.682E+00
   1    5    8     3     5    1.0456E+00  1.5790E-01   8.8768E-01  0.000E+00  0.000E+00  0.000E+00  1.06362E+03  1.164E+00  6.655E+00  4.991E-02  1.582E+00
   1    6    8     3     6    8.8768E-01  5.5980E-02   8.3170E-01  0.000E+00  0.000E+00  0.000E+00  1.06158E+03  1.036E+00  6.145E+00  1.844E-02  1.518E+00
   1    5   10     4     1    1.0000E+01  9.0919E-02   9.9091E+00  0.000E+00  0.000E+00  0.000E+00  1.07836E+03  6.368E-01  1.000E+01  2.500E-02  1.212E+00
   1    5    9     4     2    9.9091E+00  1.8158E-01   9.7275E+00  0.000E+00  0.000E+00  0.000E+00  1.07154E+03  6.315E-01  1.000E+01  5.000E-02  1.211E+00
   1    6    8     4     3    9.7275E+00  1.2689E-01   9.6006E+00  0.000E+00  0.000E+00  0.000E+00  1.06381E+03  6.256E-01  1.000E+01  3.500E-02  1.209E+00
   1    6    8     5     1    1.0432E+01  2.2686E-01   1.0205E+01  0.000E+00  0.000E+00  0.000E+00  1.05868E+03  6.790E-01  1.542E+01  6.166E-02  1.226E+00
   1    7    7     5     2    1.0205E+01  2.7894E-01   9.9265E+00  0.000E+00  0.000E+00  0.000E+00  1.05417E+03  6.732E-01  1.519E+01  7.594E-02  1.224E+00
   1    8    7     5     3    9.9265E+00  1.9221E-01   9.7343E+00  0.000E+00  0.000E+00  0.000E+00  1.04992E+03  6.676E-01  1.497E+01  5.241E-02  1.223E+00
   1    8    6     5     4    9.7343E+00  1.3577E-01   9.5985E+00  0.000E+00  0.000E+00  0.000E+00  1.04691E+03  6.637E-01  1.482E+01  3.706E-02  1.221E+00
   1    9    6     6     1    1.4087E+01  2.3167E-01   1.3855E+01  0.000E+00  0.000E+00  0.000E+00  1.04359E+03  8.612E-01  1.200E+01  6.000E-02  1.287E+00
   1   10    7     6     2    1.3855E+01  2.3116E-01   1.3624E+01  0.000E+00  0.000E+00  0.000E+00  1.03903E+03  8.526E-01  1.200E+01  6.000E-02  1.284E+00
   1   11    7     6     3    1.3624E+01  2.3064E-01   1.3393E+01  0.000E+00  0.000E+00  0.000E+00  1.03448E+03  8.440E-01  1.200E+01  6.000E-02  1.281E+00
   1   12    7     6     4    1.3393E+01  2.3012E-01   1.3163E+01  0.000E+00  0.000E+00  0.000E+00  1.02993E+03  8.353E-01  1.200E+01  6.000E-02  1.278E+00
   1   13    7     6     5    1.3163E+01  1.6822E-03   1.3161E+01  0.000E+00  0.000E+00  0.000E+00  1.02674E+03  8.309E-01  1.200E+01  2.400E-02  2.336E-02
   1   14    9     7     1    1.5000E+02  1.3782E+00   1.4862E+02  0.000E+00  0.000E+00  0.000E+00  1.03987E+03  2.288E+00  5.529E+01  5.593E-01  8.214E-01
   1   13    8     7     2    1.4862E+02  1.9631E+00   1.4666E+02  0.000E+00  0.000E+00  0.000E+00  1.03478E+03  2.279E+00  5.525E+01  6.147E-01  1.064E+00
   1   13    7     7     3    1.4666E+02  1.6854E+00   1.4497E+02  0.000E+00  0.000E+00  0.000E+00  1.02969E+03  2.269E+00  5.521E+01  5.584E-01  1.006E+00
   1   13    6     8     1    1.5813E+02  1.0721E+00   1.5706E+02  0.000E+00  0.000E+00  0.000E+00  1.02474E+03  2.870E+00  4.161E+01  4.240E-01  8.428E-01
   1   13    5     8     2    1.5706E+02  3.2913E-01   1.5673E+02  0.000E+00  0.000E+00  0.000E+00  1.01849E+03  2.865E+00  4.154E+01  4.233E-01  2.592E-01
   1   13    4     8     3    1.5673E+02 -1.8893E+00   1.5862E+02  0.000E+00  0.000E+00  0.000E+00  1.01225E+03  2.870E+00  4.162E+01  4.241E+00 -1.485E-01
   1   13    3     8     4    1.5862E+02 -3.3808E+00   1.6200E+02  0.000E+00  0.000E+00  0.000E+00  1.00601E+03  2.888E+00  4.188E+01  4.267E+00 -2.641E-01
   1   13    2     8     5    1.6200E+02 -2.5132E+00   1.6452E+02  0.000E+00  0.000E+00  0.000E+00  9.99783E+02  2.908E+00  4.216E+01  4.296E+00 -1.950E-01
   1   13    1     8     6    1.6452E+02 -1.9618E+00   1.6648E+02  0.000E+00  0.000E+00  0.000E+00  9.94798E+02  2.923E+00  4.238E+01  2.591E+00 -2.524E-01
   1    8    6     9     1    0.0000E+00  0.0000E+00   0.0000E+00  0.000E+00  0.000E+00  0.000E+00  1.07875E+03  0.000E+00  4.000E+00  0.000E+00  1.000E+00
   1    8    5     9     2    0.0000E+00  0.0000E+00   0.0000E+00  0.000E+00  0.000E+00  0.000E+00  1.07825E+03  0.000E+00  4.000E+00  0.000E+00  1.000E+00





UNSATURATED ZONE PACKAGE VOLUMETRIC BUDGET FOR  TIME STEP    30 STRESS PERIOD   26
  ------------------------------------------------------------------------------



     CUMULATIVE VOLUMES      L**3       RATES FOR THIS TIME STEP      L**3/T
     ------------------                 ------------------------

           IN:                                      IN:
           ---                                      ---
        INFILTRATION =  1256125572.2371          INFILTRATION =           4.4075

          OUT:                                     OUT:
          ----                                     ----
              UZF ET =  1000725657.4861                UZF ET =           0.7250
        UZF RECHARGE =     4062420.3294          UZF RECHARGE =           0.0660

            IN - OUT =   251337494.4216              IN - OUT =           3.6165

          STORAGE:                                 STORAGE:
          --------                                 --------
      STORAGE CHANGE =   251337479.2139        STORAGE CHANGE =           3.6165

 PERCENT DISCREPANCY IS DIFFERENCE BETWEEN IN-OUT MINUS CHANGE IN STORAGE
 DIVIDED BY THE AVERAGE OF IN AND OUT TIMES 100

 PERCENT DISCREPANCY =           0.00     PERCENT DISCREPANCY =           0.00






1
  VOLUMETRIC BUDGET FOR AGRICULTURAL FIELDS AT  END OF TIME STEP   30, STRESS PERIOD  26
  ------------------------------------------------------------------------------

     CUMULATIVE VOLUMES      L**3       RATES FOR THIS TIME STEP      L**3/T
     ------------------                 ------------------------

           IN:                                      IN:
           ---                                      ---
               AG WELLS  =   599544832.0000                 AG WELLS  =           0.0000
      DIVERSION SEGMENTS =   366911456.0000        DIVERSION SEGMENTS =           0.0000
           GW IRRIGATION =           0.0000             GW IRRIGATION =           0.0000
           SW IRRIGATION =           0.0000             SW IRRIGATION =           0.0000
        SYSTEM LOSSES GW =           0.0000          SYSTEM LOSSES GW =           0.0000
        SYSTEM LOSSES SW =           0.0000          SYSTEM LOSSES SW =           0.0000

                TOTAL IN =   966456320.0000                  TOTAL IN =           0.0000

          OUT:                                     OUT:
          ----                                     ----
               AG WELLS  =           0.0000                 AG WELLS  =           0.0000
      DIVERSION SEGMENTS =           0.0000        DIVERSION SEGMENTS =           0.0000
           GW IRRIGATION =   599544832.0000             GW IRRIGATION =           0.0000
           SW IRRIGATION =   366918816.0000             SW IRRIGATION =           0.0000
        SYSTEM LOSSES GW =           0.0000          SYSTEM LOSSES GW =           0.0000
        SYSTEM LOSSES SW =           0.0000          SYSTEM LOSSES SW =           0.0000

               TOTAL OUT =   966463616.0000                 TOTAL OUT =           0.0000

                IN - OUT =       -7296.0000                  IN - OUT =           0.0000

     PERCENT DISCREPANCY =          -0.00         PERCENT DISCREPANCY =           0.00



1
  VOLUMETRIC BUDGET FOR ENTIRE MODEL AT END OF TIME STEP   30, STRESS PERIOD  26
  ------------------------------------------------------------------------------

     CUMULATIVE VOLUMES      L**3       RATES FOR THIS TIME STEP      L**3/T
     ------------------                 ------------------------

           IN:                                      IN:
           ---                                      ---
             STORAGE     =   893733056.0000               STORAGE     =           4.9001
       CONSTANT HEAD     =           0.0000         CONSTANT HEAD     =           0.0000
     HEAD DEP BOUNDS     =    18969030.0000       HEAD DEP BOUNDS     =           0.2886
      STREAM LEAKAGE     =   771132352.0000        STREAM LEAKAGE     =          11.5168
        UZF RECHARGE     =     4062420.5000          UZF RECHARGE     =       6.6040E-02
               GW ET     =           0.0000                 GW ET     =           0.0000
     SURFACE LEAKAGE     =           0.0000       SURFACE LEAKAGE     =           0.0000
           AG WELLS      =           0.0000             AG WELLS      =           0.0000

                TOTAL IN =  1687896832.0000                  TOTAL IN =          16.7715

          OUT:                                     OUT:
          ----                                     ----
             STORAGE     =   399968320.0000               STORAGE     =           6.7398
       CONSTANT HEAD     =           0.0000         CONSTANT HEAD     =           0.0000
     HEAD DEP BOUNDS     =    18949508.0000       HEAD DEP BOUNDS     =           0.2871
      STREAM LEAKAGE     =   669440000.0000        STREAM LEAKAGE     =           9.7450
        UZF RECHARGE     =           0.0000          UZF RECHARGE     =           0.0000
               GW ET     =           0.0000                 GW ET     =           0.0000
     SURFACE LEAKAGE     =           0.0000       SURFACE LEAKAGE     =           0.0000
           AG WELLS      =   599544832.0000             AG WELLS      =           0.0000

               TOTAL OUT =  1687902720.0000                 TOTAL OUT =          16.7719

                IN - OUT =       -5888.0000                  IN - OUT =      -3.5095E-04

     PERCENT DISCREPANCY =          -0.00         PERCENT DISCREPANCY =          -0.00






         TIME SUMMARY AT END OF TIME STEP   30 IN STRESS PERIOD   26
                    SECONDS     MINUTES      HOURS       DAYS        YEARS
                    -----------------------------------------------------------
   TIME STEP LENGTH  87667.      1461.1      24.352      1.0147     2.77799E-03
 STRESS PERIOD TIME 2.63000E+06  43833.      730.56      30.440     8.33397E-02
         TOTAL TIME 6.58368E+07 1.09728E+06  18288.      762.00      2.0862    
1
1
                            STRESS PERIOD NO.   27, LENGTH =   2630000.    
                            -----------------------------------------------

                              NUMBER OF TIME STEPS =    30

                               MULTIPLIER FOR DELT =     1.000

                            INITIAL TIME STEP SIZE =   87666.66    

 REUSING NON-PARAMETER GHB CELLS FROM LAST STRESS PERIOD

      2 GHB CELLS

 REUSING STREAM SEGMENT DATA FROM LAST STRESS PERIOD



            AREAL INFILTRATION RATE
 READING ON UNIT   19 WITH FORMAT: (10F4.0)            

            1           2           3           4           5           6           7           8           9          10
 ........................................................................................................................
   1   1.2000E-09   0.000       0.000       0.000       0.000       0.000       0.000       0.000       0.000       0.000    
   2   2.1000E-09  2.0000E-09  8.0000E-10  8.5000E-09   0.000       0.000       0.000       0.000       0.000       0.000    
   3   5.0000E-10  1.1000E-09  8.8000E-09  5.5000E-09   0.000       0.000       0.000       0.000       0.000       0.000    
   4   8.5000E-09  1.1000E-09  1.1000E-09  1.1000E-09  2.0000E-09   0.000       0.000       0.000       0.000       0.000    
   5   8.5000E-09  1.1000E-09  1.1000E-09  1.1000E-09  1.1000E-09   0.000       0.000       0.000       0.000       0.000    
   6   8.5000E-09  5.2000E-09  2.1000E-09  1.1000E-09  1.5000E-09   0.000       0.000       0.000       0.000       0.000    
   7   8.5000E-09  5.2000E-09  2.1000E-09  1.2000E-09  2.0000E-09   0.000       0.000       0.000       0.000       0.000    
   8   5.0000E-10  5.2000E-09  2.1000E-09  1.2000E-09  5.0000E-09   0.000       0.000       0.000       0.000       0.000    
   9   5.0000E-10  5.2000E-09  2.1000E-09  1.2000E-09  5.0000E-09   0.000       0.000       0.000       0.000       0.000    
  10   5.0000E-10  5.2000E-09  2.1000E-09  1.2000E-09  5.8000E-09   0.000       0.000       0.000       0.000       0.000    
  11   1.0000E-10  1.1000E-09  1.1000E-09  1.2000E-09  5.0000E-09   0.000       0.000       0.000       0.000       0.000    
  12   1.1000E-09  1.1000E-09  1.1000E-09  1.1000E-09  2.0000E-09   0.000       0.000       0.000       0.000       0.000    
  13   1.1000E-09  2.2000E-09  2.2000E-09  2.1000E-09  1.0000E-09   0.000       0.000       0.000       0.000       0.000    
  14   2.0000E-10  5.5000E-09  5.5000E-09  5.2000E-09  1.0000E-09   0.000       0.000       0.000       0.000       0.000    
  15    0.000      8.8000E-09  8.8000E-09   0.000       0.000       0.000       0.000       0.000       0.000       0.000    

                  ET RATE =  5.000000E-10

 USING ET EXTINCTION DEPTH FROM PREVIOUS STRESS PERIOD. CURRENT PERIOD IS:      27

 USING EXTINCTION WATER CONTENT FROM PREVIOUS STRESS PERIOD. CURRENT PERIOD IS:      27

 USING AIR ENTRY PRESSURE FROM PREVIOUS STRESS PERIOD. CURRENT PERIOD IS:      27

 USING ROOT PRESSURE HEAD FROM PREVIOUS STRESS PERIOD. CURRENT PERIOD IS:      27

 USING ROOT ACTIVITY FROM PREVIOUS STRESS PERIOD. CURRENT PERIOD IS:      27

 PROCESSING AG STRESS PERIOD DATA

 READING AG STRESS PERIOD DATA

 READING IRRIGATION SEGMENT

 READING IRRIGATION WELL

 READING SUPPLEMENTAL WELL

 END PROCESSING AG STRESS PERIOD DATA OPTIONS
 
 SOLVING FOR HEAD 
                                                   Max.-Head-Change                         Max.-Flux-Residual
  Residual-Control   Outer-Iter.   Inner-Iter.     Column Row Layer    Maximum-Head-Change  Column Row Layer    Maximum-Flux-Residual          L2-NORM 
          0                 1           2             4    7     1       0.1472464471E-01       4    7    1         0.7727252712E+00      0.1858807189E+01
          0                 2           2             4    7     1      -0.1431807309E-02       4    7    1        -0.7727284729E-01      0.1813831595E+00
          0                 3           1             4    7     1       0.9751677855E-04       4    7    1         0.5409098551E-02      0.1264266210E-01

    ------------------------------------------------
       NWT REQUIRED            3 OUTER ITERATIONS 
       AND A TOTAL OF          5 INNER ITERATIONS.
    ------------------------------------------------

 NO OUTPUT CONTROL FOR STRESS PERIOD   27   TIME STEP    1
 
 SOLVING FOR HEAD 
                                                   Max.-Head-Change                         Max.-Flux-Residual
  Residual-Control   Outer-Iter.   Inner-Iter.     Column Row Layer    Maximum-Head-Change  Column Row Layer    Maximum-Flux-Residual          L2-NORM 
          0                 1           2             4    7     1       0.1458020061E-01       4    7    1         0.7650970244E+00      0.1843355178E+01
          0                 2           2             4    7     1      -0.1417760450E-02       4    7    1        -0.7651001480E-01      0.1798693544E+00
          0                 3           1             4    7     1       0.9656012163E-04       4    7    1         0.5355700320E-02      0.1253703892E-01

    ------------------------------------------------
       NWT REQUIRED            3 OUTER ITERATIONS 
       AND A TOTAL OF          5 INNER ITERATIONS.
    ------------------------------------------------

 NO OUTPUT CONTROL FOR STRESS PERIOD   27   TIME STEP    2
 
 SOLVING FOR HEAD 
                                                   Max.-Head-Change                         Max.-Flux-Residual
  Residual-Control   Outer-Iter.   Inner-Iter.     Column Row Layer    Maximum-Head-Change  Column Row Layer    Maximum-Flux-Residual          L2-NORM 
          0                 1           2             4    7     1       0.1443802604E-01       4    7    1         0.7575856397E+00      0.1846954599E+01
          0                 2           2             4    7     1      -0.1403934055E-02       4    7    1        -0.7575886866E-01      0.1802059312E+00
          0                 3           1             4    7     1       0.9561848756E-04       4    7    1         0.5303120156E-02      0.1255193775E-01

    ------------------------------------------------
       NWT REQUIRED            3 OUTER ITERATIONS 
       AND A TOTAL OF          5 INNER ITERATIONS.
    ------------------------------------------------

 NO OUTPUT CONTROL FOR STRESS PERIOD   27   TIME STEP    3
 
 SOLVING FOR HEAD 
                                                   Max.-Head-Change                         Max.-Flux-Residual
  Residual-Control   Outer-Iter.   Inner-Iter.     Column Row Layer    Maximum-Head-Change  Column Row Layer    Maximum-Flux-Residual          L2-NORM 
          0                 1           2             4    7     1       0.1429820058E-01       4    7    1         0.7501992599E+00      0.1830409127E+01
          0                 2           2             4    7     1      -0.1390336164E-02       4    7    1        -0.7502022327E-01      0.1785878819E+00
          0                 3           1             4    7     1       0.9469241321E-04       4    7    1         0.5251415013E-02      0.1244032813E-01

    ------------------------------------------------
       NWT REQUIRED            3 OUTER ITERATIONS 
       AND A TOTAL OF          5 INNER ITERATIONS.
    ------------------------------------------------

 NO OUTPUT CONTROL FOR STRESS PERIOD   27   TIME STEP    4
 
 SOLVING FOR HEAD 
                                                   Max.-Head-Change                         Max.-Flux-Residual
  Residual-Control   Outer-Iter.   Inner-Iter.     Column Row Layer    Maximum-Head-Change  Column Row Layer    Maximum-Flux-Residual          L2-NORM 
          0                 1           2             4    7     1       0.1416065464E-01       4    7    1         0.7429346781E+00      0.1814486468E+01
          0                 2           2             4    7     1      -0.1376959996E-02       4    7    1        -0.7429375792E-01      0.1770308984E+00
          0                 3           1             4    7     1       0.9378143862E-04       4    7    1         0.5200562503E-02      0.1233288773E-01

    ------------------------------------------------
       NWT REQUIRED            3 OUTER ITERATIONS 
       AND A TOTAL OF          5 INNER ITERATIONS.
    ------------------------------------------------

 NO OUTPUT CONTROL FOR STRESS PERIOD   27   TIME STEP    5
 
 SOLVING FOR HEAD 
                                                   Max.-Head-Change                         Max.-Flux-Residual
  Residual-Control   Outer-Iter.   Inner-Iter.     Column Row Layer    Maximum-Head-Change  Column Row Layer    Maximum-Flux-Residual          L2-NORM 
          0                 1           2             4    7     1       0.1402533211E-01       4    7    1         0.7357882862E+00      0.1799130775E+01
          0                 2           2             4    7     1      -0.1363800082E-02       4    7    1        -0.7357911178E-01      0.1755297266E+00
          0                 3           1             4    7     1       0.9288519043E-04       4    7    1         0.5150537310E-02      0.1222895255E-01

    ------------------------------------------------
       NWT REQUIRED            3 OUTER ITERATIONS 
       AND A TOTAL OF          5 INNER ITERATIONS.
    ------------------------------------------------

 NO OUTPUT CONTROL FOR STRESS PERIOD   27   TIME STEP    6
 
 SOLVING FOR HEAD 
                                                   Max.-Head-Change                         Max.-Flux-Residual
  Residual-Control   Outer-Iter.   Inner-Iter.     Column Row Layer    Maximum-Head-Change  Column Row Layer    Maximum-Flux-Residual          L2-NORM 
          0                 1           2             4    7     1       0.1389217280E-01       4    7    1         0.7287571753E+00      0.1784268219E+01
          0                 2           2             4    7     1      -0.1350850584E-02       4    7    1        -0.7287599395E-01      0.1740770804E+00
          0                 3           1             4    7     1       0.9200327055E-04       4    7    1         0.5101319082E-02      0.1212854331E-01

    ------------------------------------------------
       NWT REQUIRED            3 OUTER ITERATIONS 
       AND A TOTAL OF          5 INNER ITERATIONS.
    ------------------------------------------------

 NO OUTPUT CONTROL FOR STRESS PERIOD   27   TIME STEP    7
 
 SOLVING FOR HEAD 
                                                   Max.-Head-Change                         Max.-Flux-Residual
  Residual-Control   Outer-Iter.   Inner-Iter.     Column Row Layer    Maximum-Head-Change  Column Row Layer    Maximum-Flux-Residual          L2-NORM 
          0                 1           2             4    7     1       0.1376112051E-01       4    7    1         0.7218382240E+00      0.1769843945E+01
          0                 2           2             4    7     1      -0.1338106027E-02       4    7    1        -0.7218409231E-01      0.1726678085E+00
          0                 3           1             4    7     1       0.9113530778E-04       4    7    1         0.5052886021E-02      0.1203107325E-01

    ------------------------------------------------
       NWT REQUIRED            3 OUTER ITERATIONS 
       AND A TOTAL OF          5 INNER ITERATIONS.
    ------------------------------------------------

 NO OUTPUT CONTROL FOR STRESS PERIOD   27   TIME STEP    8
 
 SOLVING FOR HEAD 
                                                   Max.-Head-Change                         Max.-Flux-Residual
  Residual-Control   Outer-Iter.   Inner-Iter.     Column Row Layer    Maximum-Head-Change  Column Row Layer    Maximum-Flux-Residual          L2-NORM 
          0                 1           2             4    7     1       0.1363212266E-01       4    7    1         0.7150285194E+00      0.1755826956E+01
          0                 2           2             4    7     1      -0.1325561285E-02       4    7    1        -0.7150311550E-01      0.1712985250E+00
          0                 3           1             4    7     1       0.9028095241E-04       4    7    1         0.5005217688E-02      0.1193628044E-01

    ------------------------------------------------
       NWT REQUIRED            3 OUTER ITERATIONS 
       AND A TOTAL OF          5 INNER ITERATIONS.
    ------------------------------------------------

 NO OUTPUT CONTROL FOR STRESS PERIOD   27   TIME STEP    9
 
 SOLVING FOR HEAD 
                                                   Max.-Head-Change                         Max.-Flux-Residual
  Residual-Control   Outer-Iter.   Inner-Iter.     Column Row Layer    Maximum-Head-Change  Column Row Layer    Maximum-Flux-Residual          L2-NORM 
          0                 1           2             4    7     1       0.1350512635E-01       4    7    1         0.7083253348E+00      0.1742170905E+01
          0                 2           2             4    7     1      -0.1313211230E-02       4    7    1        -0.7083279091E-01      0.1699647774E+00
          0                 3           1             4    7     1       0.8943985430E-04       4    7    1         0.4958295003E-02      0.1184348879E-01

    ------------------------------------------------
       NWT REQUIRED            3 OUTER ITERATIONS 
       AND A TOTAL OF          5 INNER ITERATIONS.
    ------------------------------------------------

 NO OUTPUT CONTROL FOR STRESS PERIOD   27   TIME STEP   10
 
 SOLVING FOR HEAD 
                                                   Max.-Head-Change                         Max.-Flux-Residual
  Residual-Control   Outer-Iter.   Inner-Iter.     Column Row Layer    Maximum-Head-Change  Column Row Layer    Maximum-Flux-Residual          L2-NORM 
          0                 1           2             4    7     1       0.1338007852E-01       4    7    1         0.7017259277E+00      0.1728835812E+01
          0                 2           2             4    7     1      -0.1301050681E-02       4    7    1        -0.7017284423E-01      0.1686627320E+00
          0                 3           1             4    7     1       0.8861166269E-04       4    7    1         0.4912098792E-02      0.1175344196E-01

    ------------------------------------------------
       NWT REQUIRED            3 OUTER ITERATIONS 
       AND A TOTAL OF          5 INNER ITERATIONS.
    ------------------------------------------------

 NO OUTPUT CONTROL FOR STRESS PERIOD   27   TIME STEP   11
 
 SOLVING FOR HEAD 
                                                   Max.-Head-Change                         Max.-Flux-Residual
  Residual-Control   Outer-Iter.   Inner-Iter.     Column Row Layer    Maximum-Head-Change  Column Row Layer    Maximum-Flux-Residual          L2-NORM 
          0                 1           2             4    7     1       0.1325706632E-01       4    7    1         0.6952348661E+00      0.1715803411E+01
          0                 2           2             4    7     1      -0.1289088133E-02       4    7    1        -0.6952373231E-01      0.1673907792E+00
          0                 3           1             4    7     1       0.8779695377E-04       4    7    1         0.4866660969E-02      0.1166482238E-01

    ------------------------------------------------
       NWT REQUIRED            3 OUTER ITERATIONS 
       AND A TOTAL OF          5 INNER ITERATIONS.
    ------------------------------------------------

 NO OUTPUT CONTROL FOR STRESS PERIOD   27   TIME STEP   12
 
 SOLVING FOR HEAD 
                                                   Max.-Head-Change                         Max.-Flux-Residual
  Residual-Control   Outer-Iter.   Inner-Iter.     Column Row Layer    Maximum-Head-Change  Column Row Layer    Maximum-Flux-Residual          L2-NORM 
          0                 1           2             4    7     1       0.1313577188E-01       4    7    1         0.6888347105E+00      0.1703055294E+01
          0                 2           2             4    7     1      -0.1277292647E-02       4    7    1        -0.6888371112E-01      0.1661467247E+00
          0                 3           1             4    7     1       0.8699362232E-04       4    7    1         0.4821859514E-02      0.1157841167E-01

    ------------------------------------------------
       NWT REQUIRED            3 OUTER ITERATIONS 
       AND A TOTAL OF          5 INNER ITERATIONS.
    ------------------------------------------------

 NO OUTPUT CONTROL FOR STRESS PERIOD   27   TIME STEP   13
 
 SOLVING FOR HEAD 
                                                   Max.-Head-Change                         Max.-Flux-Residual
  Residual-Control   Outer-Iter.   Inner-Iter.     Column Row Layer    Maximum-Head-Change  Column Row Layer    Maximum-Flux-Residual          L2-NORM 
          0                 1           2             4    7     1       0.1301642149E-01       4    7    1         0.6825382587E+00      0.1690555840E+01
          0                 2           2             4    7     1      -0.1265686245E-02       4    7    1        -0.6825406052E-01      0.1649278730E+00
          0                 3           1             4    7     1       0.8620316815E-04       4    7    1         0.4777784036E-02      0.1149377063E-01

    ------------------------------------------------
       NWT REQUIRED            3 OUTER ITERATIONS 
       AND A TOTAL OF          5 INNER ITERATIONS.
    ------------------------------------------------

 NO OUTPUT CONTROL FOR STRESS PERIOD   27   TIME STEP   14
 
 SOLVING FOR HEAD 
                                                   Max.-Head-Change                         Max.-Flux-Residual
  Residual-Control   Outer-Iter.   Inner-Iter.     Column Row Layer    Maximum-Head-Change  Column Row Layer    Maximum-Flux-Residual          L2-NORM 
          0                 1           2             4    7     1       0.1289882917E-01       4    7    1         0.6763352837E+00      0.1678296669E+01
          0                 2           2             4    7     1      -0.1254250834E-02       4    7    1        -0.6763375774E-01      0.1637316639E+00
          0                 3           1             4    7     1       0.8542435771E-04       4    7    1         0.4734362861E-02      0.1141048475E-01

    ------------------------------------------------
       NWT REQUIRED            3 OUTER ITERATIONS 
       AND A TOTAL OF          5 INNER ITERATIONS.
    ------------------------------------------------

 NO OUTPUT CONTROL FOR STRESS PERIOD   27   TIME STEP   15
 
 SOLVING FOR HEAD 
                                                   Max.-Head-Change                         Max.-Flux-Residual
  Residual-Control   Outer-Iter.   Inner-Iter.     Column Row Layer    Maximum-Head-Change  Column Row Layer    Maximum-Flux-Residual          L2-NORM 
          0                 1           2             4    7     1       0.1278295600E-01       4    7    1         0.6702234628E+00      0.1667682868E+01
          0                 2           2             4    7     1      -0.1242982637E-02       4    7    1        -0.6702257050E-01      0.1628499437E+00
          0                 3           1             4    7     1       0.8465693433E-04       4    7    1         0.4691579774E-02      0.1140935380E-01

    ------------------------------------------------
       NWT REQUIRED            3 OUTER ITERATIONS 
       AND A TOTAL OF          5 INNER ITERATIONS.
    ------------------------------------------------

 NO OUTPUT CONTROL FOR STRESS PERIOD   27   TIME STEP   16
 
 SOLVING FOR HEAD 
                                                   Max.-Head-Change                         Max.-Flux-Residual
  Residual-Control   Outer-Iter.   Inner-Iter.     Column Row Layer    Maximum-Head-Change  Column Row Layer    Maximum-Flux-Residual          L2-NORM 
          0                 1           2             4    7     1       0.1266876214E-01       4    7    1         0.6642007781E+00      0.1655719415E+01
          0                 2           2             4    7     1      -0.1231877760E-02       4    7    1        -0.6642029704E-01      0.1616640858E+00
          0                 3           1             4    7     1       0.8390063400E-04       4    7    1         0.4649420676E-02      0.1131941100E-01

    ------------------------------------------------
       NWT REQUIRED            3 OUTER ITERATIONS 
       AND A TOTAL OF          5 INNER ITERATIONS.
    ------------------------------------------------

 NO OUTPUT CONTROL FOR STRESS PERIOD   27   TIME STEP   17
 
 SOLVING FOR HEAD 
                                                   Max.-Head-Change                         Max.-Flux-Residual
  Residual-Control   Outer-Iter.   Inner-Iter.     Column Row Layer    Maximum-Head-Change  Column Row Layer    Maximum-Flux-Residual          L2-NORM 
          0                 1           2             4    7     1       0.1255633846E-01       4    7    1         0.6582724843E+00      0.1643791139E+01
          0                 2           2             4    7     1      -0.1220945051E-02       4    7    1        -0.6582746281E-01      0.1604721593E+00
          0                 3           1             4    7     1       0.8315605847E-04       4    7    1         0.4607922308E-02      0.1122517169E-01

    ------------------------------------------------
       NWT REQUIRED            3 OUTER ITERATIONS 
       AND A TOTAL OF          5 INNER ITERATIONS.
    ------------------------------------------------

 NO OUTPUT CONTROL FOR STRESS PERIOD   27   TIME STEP   18
 
 SOLVING FOR HEAD 
                                                   Max.-Head-Change                         Max.-Flux-Residual
  Residual-Control   Outer-Iter.   Inner-Iter.     Column Row Layer    Maximum-Head-Change  Column Row Layer    Maximum-Flux-Residual          L2-NORM 
          0                 1           2             4    7     1       0.1244551130E-01       4    7    1         0.6524286524E+00      0.1632119099E+01
          0                 2           2             4    7     1      -0.1210167618E-02       4    7    1        -0.6524307491E-01      0.1593116276E+00
          0                 3           1             4    7     1       0.8242205726E-04       4    7    1         0.4567015179E-02      0.1113543067E-01

    ------------------------------------------------
       NWT REQUIRED            3 OUTER ITERATIONS 
       AND A TOTAL OF          5 INNER ITERATIONS.
    ------------------------------------------------

 NO OUTPUT CONTROL FOR STRESS PERIOD   27   TIME STEP   19
 
 SOLVING FOR HEAD 
                                                   Max.-Head-Change                         Max.-Flux-Residual
  Residual-Control   Outer-Iter.   Inner-Iter.     Column Row Layer    Maximum-Head-Change  Column Row Layer    Maximum-Flux-Residual          L2-NORM 
          0                 1           2             4    7     1       0.1233637859E-01       4    7    1         0.6466749194E+00      0.1620680507E+01
          0                 2           2             4    7     1      -0.1199554985E-02       4    7    1        -0.6466769705E-01      0.1581793943E+00
          0                 3           1             4    7     1       0.8169927898E-04       4    7    1         0.4526738764E-02      0.1104970489E-01

    ------------------------------------------------
       NWT REQUIRED            3 OUTER ITERATIONS 
       AND A TOTAL OF          5 INNER ITERATIONS.
    ------------------------------------------------

 NO OUTPUT CONTROL FOR STRESS PERIOD   27   TIME STEP   20
 
 SOLVING FOR HEAD 
                                                   Max.-Head-Change                         Max.-Flux-Residual
  Residual-Control   Outer-Iter.   Inner-Iter.     Column Row Layer    Maximum-Head-Change  Column Row Layer    Maximum-Flux-Residual          L2-NORM 
          0                 1           2             4    7     1       0.1222862685E-01       4    7    1         0.6409944002E+00      0.1609439759E+01
          0                 2           2             4    7     1      -0.1189076652E-02       4    7    1        -0.6409964069E-01      0.1570698839E+00
          0                 3           1             4    7     1       0.8098564730E-04       4    7    1         0.4486974838E-02      0.1096677455E-01

    ------------------------------------------------
       NWT REQUIRED            3 OUTER ITERATIONS 
       AND A TOTAL OF          5 INNER ITERATIONS.
    ------------------------------------------------

 NO OUTPUT CONTROL FOR STRESS PERIOD   27   TIME STEP   21
 
 SOLVING FOR HEAD 
                                                   Max.-Head-Change                         Max.-Flux-Residual
  Residual-Control   Outer-Iter.   Inner-Iter.     Column Row Layer    Maximum-Head-Change  Column Row Layer    Maximum-Flux-Residual          L2-NORM 
          0                 1           2             4    7     1       0.1212263517E-01       4    7    1         0.6354074470E+00      0.1598397634E+01
          0                 2           2             4    7     1      -0.1178769510E-02       4    7    1        -0.6354094105E-01      0.1559833896E+00
          0                 3           1             4    7     1       0.8028367307E-04       4    7    1         0.4447865878E-02      0.1088684619E-01

    ------------------------------------------------
       NWT REQUIRED            3 OUTER ITERATIONS 
       AND A TOTAL OF          5 INNER ITERATIONS.
    ------------------------------------------------

 NO OUTPUT CONTROL FOR STRESS PERIOD   27   TIME STEP   22
 
 SOLVING FOR HEAD 
                                                   Max.-Head-Change                         Max.-Flux-Residual
  Residual-Control   Outer-Iter.   Inner-Iter.     Column Row Layer    Maximum-Head-Change  Column Row Layer    Maximum-Flux-Residual          L2-NORM 
          0                 1           2             4    7     1       0.1201795290E-01       4    7    1         0.6298897867E+00      0.1587536624E+01
          0                 2           2             4    7     1      -0.1168589706E-02       4    7    1        -0.6298917080E-01      0.1549172060E+00
          0                 3           1             4    7     1       0.7959037174E-04       4    7    1         0.4409241993E-02      0.1080925860E-01

    ------------------------------------------------
       NWT REQUIRED            3 OUTER ITERATIONS 
       AND A TOTAL OF          5 INNER ITERATIONS.
    ------------------------------------------------

 NO OUTPUT CONTROL FOR STRESS PERIOD   27   TIME STEP   23
 
 SOLVING FOR HEAD 
                                                   Max.-Head-Change                         Max.-Flux-Residual
  Residual-Control   Outer-Iter.   Inner-Iter.     Column Row Layer    Maximum-Head-Change  Column Row Layer    Maximum-Flux-Residual          L2-NORM 
          0                 1           2             4    7     1       0.1191482393E-01       4    7    1         0.6244546621E+00      0.1576841122E+01
          0                 2           2             4    7     1      -0.1158560982E-02       4    7    1        -0.6244565427E-01      0.1538693685E+00
          0                 3           1             4    7     1       0.7890735883E-04       4    7    1         0.4371195861E-02      0.1073354569E-01

    ------------------------------------------------
       NWT REQUIRED            3 OUTER ITERATIONS 
       AND A TOTAL OF          5 INNER ITERATIONS.
    ------------------------------------------------

 NO OUTPUT CONTROL FOR STRESS PERIOD   27   TIME STEP   24
 
 SOLVING FOR HEAD 
                                                   Max.-Head-Change                         Max.-Flux-Residual
  Residual-Control   Outer-Iter.   Inner-Iter.     Column Row Layer    Maximum-Head-Change  Column Row Layer    Maximum-Flux-Residual          L2-NORM 
          0                 1           2             4    7     1       0.1181321080E-01       4    7    1         0.6191000744E+00      0.1566310274E+01
          0                 2           2             4    7     1      -0.1148679676E-02       4    7    1        -0.6191019153E-01      0.1528391561E+00
          0                 3           1             4    7     1       0.7823438500E-04       4    7    1         0.4333713483E-02      0.1065995098E-01

    ------------------------------------------------
       NWT REQUIRED            3 OUTER ITERATIONS 
       AND A TOTAL OF          5 INNER ITERATIONS.
    ------------------------------------------------

 NO OUTPUT CONTROL FOR STRESS PERIOD   27   TIME STEP   25
 
 SOLVING FOR HEAD 
                                                   Max.-Head-Change                         Max.-Flux-Residual
  Residual-Control   Outer-Iter.   Inner-Iter.     Column Row Layer    Maximum-Head-Change  Column Row Layer    Maximum-Flux-Residual          L2-NORM 
          0                 1           2             4    7     1       0.1171294383E-01       4    7    1         0.6138167606E+00      0.1555930354E+01
          0                 2           2             4    7     1      -0.1138929290E-02       4    7    1        -0.6138185626E-01      0.1518249398E+00
          0                 3           1             4    7     1       0.7757032773E-04       4    7    1         0.4296730056E-02      0.1058755820E-01

    ------------------------------------------------
       NWT REQUIRED            3 OUTER ITERATIONS 
       AND A TOTAL OF          5 INNER ITERATIONS.
    ------------------------------------------------

 NO OUTPUT CONTROL FOR STRESS PERIOD   27   TIME STEP   26
 
 SOLVING FOR HEAD 
                                                   Max.-Head-Change                         Max.-Flux-Residual
  Residual-Control   Outer-Iter.   Inner-Iter.     Column Row Layer    Maximum-Head-Change  Column Row Layer    Maximum-Flux-Residual          L2-NORM 
          0                 1           2             4    7     1       0.1161399821E-01       4    7    1         0.6086032439E+00      0.1545698154E+01
          0                 2           2             4    7     1      -0.1129307412E-02       4    7    1        -0.6086050083E-01      0.1508262480E+00
          0                 3           1             4    7     1       0.7691502169E-04       4    7    1         0.4260235171E-02      0.1051675493E-01

    ------------------------------------------------
       NWT REQUIRED            3 OUTER ITERATIONS 
       AND A TOTAL OF          5 INNER ITERATIONS.
    ------------------------------------------------

 NO OUTPUT CONTROL FOR STRESS PERIOD   27   TIME STEP   27
 
 SOLVING FOR HEAD 
                                                   Max.-Head-Change                         Max.-Flux-Residual
  Residual-Control   Outer-Iter.   Inner-Iter.     Column Row Layer    Maximum-Head-Change  Column Row Layer    Maximum-Flux-Residual          L2-NORM 
          0                 1           2             4    7     1       0.1151647651E-01       4    7    1         0.6034655603E+00      0.1535605579E+01
          0                 2           2             4    7     1      -0.1119824011E-02       4    7    1        -0.6034672880E-01      0.1498418377E+00
          0                 3           1             4    7     1       0.7626914660E-04       4    7    1         0.4224271152E-02      0.1044717464E-01

    ------------------------------------------------
       NWT REQUIRED            3 OUTER ITERATIONS 
       AND A TOTAL OF          5 INNER ITERATIONS.
    ------------------------------------------------

 NO OUTPUT CONTROL FOR STRESS PERIOD   27   TIME STEP   28
 
 SOLVING FOR HEAD 
                                                   Max.-Head-Change                         Max.-Flux-Residual
  Residual-Control   Outer-Iter.   Inner-Iter.     Column Row Layer    Maximum-Head-Change  Column Row Layer    Maximum-Flux-Residual          L2-NORM 
          0                 1           2             4    7     1       0.1142034817E-01       4    7    1         0.5984017071E+00      0.1525647380E+01
          0                 2           2             4    7     1      -0.1110476131E-02       4    7    1        -0.5984033990E-01      0.1488714411E+00
          0                 3           1             4    7     1       0.7563250106E-04       4    7    1         0.4188823963E-02      0.1037881568E-01

    ------------------------------------------------
       NWT REQUIRED            3 OUTER ITERATIONS 
       AND A TOTAL OF          5 INNER ITERATIONS.
    ------------------------------------------------

 NO OUTPUT CONTROL FOR STRESS PERIOD   27   TIME STEP   29
 
 SOLVING FOR HEAD 
                                                   Max.-Head-Change                         Max.-Flux-Residual
  Residual-Control   Outer-Iter.   Inner-Iter.     Column Row Layer    Maximum-Head-Change  Column Row Layer    Maximum-Flux-Residual          L2-NORM 
          0                 1           2             4    7     1       0.1132544774E-01       4    7    1         0.5934027753E+00      0.1515824543E+01
          0                 2           2             4    7     1      -0.1101247661E-02       4    7    1        -0.5934044327E-01      0.1479147479E+00
          0                 3           1             4    7     1       0.7500398738E-04       4    7    1         0.4153831204E-02      0.1031152684E-01

    ------------------------------------------------
       NWT REQUIRED            3 OUTER ITERATIONS 
       AND A TOTAL OF          5 INNER ITERATIONS.
    ------------------------------------------------

 NO OUTPUT CONTROL FOR STRESS PERIOD   27   TIME STEP   30



 STREAM LISTING     PERIOD     27   STEP       30

 LAYER ROW COL. STREAM  RCH.  FLOW INTO     FLOW TO   FLOW OUT OF   OVRLND.     DIRECT     STREAM       STREAM     STREAM     STREAM   STREAMBED  STREAMBED
                SEG.NO.  NO.  STRM. RCH.    AQUIFER    STRM. RCH.    RUNOFF     PRECIP       ET          HEAD       DEPTH      WIDTH   CONDCTNC.   GRADIENT

   1    1    1     1     1    1.5750E+01  1.9239E-01   1.5557E+01  0.000E+00  0.000E+00  0.000E+00  1.09407E+03  1.025E+00  1.062E+01  4.780E-02  1.342E+00
   1    2    2     1     2    1.5557E+01  2.9659E-01   1.5261E+01  0.000E+00  0.000E+00  0.000E+00  1.08908E+03  1.020E+00  1.054E+01  7.378E-02  1.340E+00
   1    3    3     1     3    1.5261E+01  2.5163E-01   1.5009E+01  0.000E+00  0.000E+00  0.000E+00  1.08343E+03  1.015E+00  1.045E+01  6.268E-02  1.338E+00
   1    3    4     1     4    1.5009E+01  2.3063E-01   1.4778E+01  0.000E+00  0.000E+00  0.000E+00  1.07842E+03  1.010E+00  1.036E+01  5.751E-02  1.337E+00
   1    4    5     2     1    1.2778E+01  2.9653E-01   1.2482E+01  0.000E+00  0.000E+00  0.000E+00  1.07274E+03  8.017E-01  1.200E+01  7.800E-02  1.267E+00
   1    5    6     2     2    1.2482E+01  2.2750E-01   1.2254E+01  0.000E+00  0.000E+00  0.000E+00  1.06730E+03  7.916E-01  1.200E+01  6.000E-02  1.264E+00
   1    6    6     2     3    1.2254E+01  2.2697E-01   1.2027E+01  0.000E+00  0.000E+00  0.000E+00  1.06258E+03  7.829E-01  1.200E+01  6.000E-02  1.261E+00
   1    7    6     2     4    1.2027E+01  2.2644E-01   1.1801E+01  0.000E+00  0.000E+00  0.000E+00  1.05785E+03  7.741E-01  1.200E+01  6.000E-02  1.258E+00
   1    8    6     2     5    1.1801E+01  2.2591E-01   1.1575E+01  0.000E+00  0.000E+00  0.000E+00  1.05312E+03  7.652E-01  1.200E+01  6.000E-02  1.255E+00
   1    3    5     3     1    2.0000E+00  2.8252E-01   1.7175E+00  0.000E+00  0.000E+00  0.000E+00  1.07555E+03  1.909E+00  9.636E+00  7.227E-02  1.955E+00
   1    3    6     3     2    1.7175E+00  2.4905E-01   1.4684E+00  0.000E+00  0.000E+00  0.000E+00  1.07264E+03  1.727E+00  8.909E+00  6.682E-02  1.864E+00
   1    3    7     3     3    1.4684E+00  1.9718E-01   1.2712E+00  0.000E+00  0.000E+00  0.000E+00  1.06987E+03  1.555E+00  8.218E+00  5.547E-02  1.777E+00
   1    4    8     3     4    1.2712E+00  2.2567E-01   1.0456E+00  0.000E+00  0.000E+00  0.000E+00  1.06682E+03  1.364E+00  7.455E+00  6.709E-02  1.682E+00
   1    5    8     3     5    1.0456E+00  1.5790E-01   8.8768E-01  0.000E+00  0.000E+00  0.000E+00  1.06362E+03  1.164E+00  6.655E+00  4.991E-02  1.582E+00
   1    6    8     3     6    8.8768E-01  5.5980E-02   8.3170E-01  0.000E+00  0.000E+00  0.000E+00  1.06158E+03  1.036E+00  6.145E+00  1.844E-02  1.518E+00
   1    5   10     4     1    1.0000E+01  9.0919E-02   9.9091E+00  0.000E+00  0.000E+00  0.000E+00  1.07836E+03  6.368E-01  1.000E+01  2.500E-02  1.212E+00
   1    5    9     4     2    9.9091E+00  1.8158E-01   9.7275E+00  0.000E+00  0.000E+00  0.000E+00  1.07154E+03  6.315E-01  1.000E+01  5.000E-02  1.211E+00
   1    6    8     4     3    9.7275E+00  1.2689E-01   9.6006E+00  0.000E+00  0.000E+00  0.000E+00  1.06381E+03  6.256E-01  1.000E+01  3.500E-02  1.209E+00
   1    6    8     5     1    1.0432E+01  2.2686E-01   1.0205E+01  0.000E+00  0.000E+00  0.000E+00  1.05868E+03  6.790E-01  1.542E+01  6.166E-02  1.226E+00
   1    7    7     5     2    1.0205E+01  2.7894E-01   9.9265E+00  0.000E+00  0.000E+00  0.000E+00  1.05417E+03  6.732E-01  1.519E+01  7.594E-02  1.224E+00
   1    8    7     5     3    9.9265E+00  1.9221E-01   9.7343E+00  0.000E+00  0.000E+00  0.000E+00  1.04992E+03  6.676E-01  1.497E+01  5.241E-02  1.223E+00
   1    8    6     5     4    9.7343E+00  1.3577E-01   9.5985E+00  0.000E+00  0.000E+00  0.000E+00  1.04691E+03  6.637E-01  1.482E+01  3.706E-02  1.221E+00
   1    9    6     6     1    2.1173E+01  2.4608E-01   2.0927E+01  0.000E+00  0.000E+00  0.000E+00  1.04383E+03  1.101E+00  1.200E+01  6.000E-02  1.367E+00
   1   10    7     6     2    2.0927E+01  2.4562E-01   2.0682E+01  0.000E+00  0.000E+00  0.000E+00  1.03928E+03  1.094E+00  1.200E+01  6.000E-02  1.365E+00
   1   11    7     6     3    2.0682E+01  2.4515E-01   2.0437E+01  0.000E+00  0.000E+00  0.000E+00  1.03472E+03  1.086E+00  1.200E+01  6.000E-02  1.362E+00
   1   12    7     6     4    2.0437E+01  2.4468E-01   2.0192E+01  0.000E+00  0.000E+00  0.000E+00  1.03017E+03  1.078E+00  1.200E+01  6.000E-02  1.359E+00
   1   13    7     6     5    2.0192E+01  7.8759E-03   2.0184E+01  0.000E+00  0.000E+00  0.000E+00  1.02698E+03  1.074E+00  1.200E+01  2.400E-02  1.094E-01
   1   14    9     7     1    1.5000E+02  1.3793E+00   1.4862E+02  0.000E+00  0.000E+00  0.000E+00  1.03987E+03  2.288E+00  5.529E+01  5.593E-01  8.220E-01
   1   13    8     7     2    1.4862E+02  1.9678E+00   1.4665E+02  0.000E+00  0.000E+00  0.000E+00  1.03478E+03  2.279E+00  5.525E+01  6.147E-01  1.067E+00
   1   13    7     7     3    1.4665E+02  1.6937E+00   1.4496E+02  0.000E+00  0.000E+00  0.000E+00  1.02969E+03  2.269E+00  5.521E+01  5.584E-01  1.011E+00
   1   13    6     8     1    1.6514E+02  1.1143E+00   1.6403E+02  0.000E+00  0.000E+00  0.000E+00  1.02479E+03  2.917E+00  4.229E+01  4.310E-01  8.619E-01
   1   13    5     8     2    1.6403E+02  3.5776E-01   1.6367E+02  0.000E+00  0.000E+00  0.000E+00  1.01854E+03  2.912E+00  4.222E+01  4.302E-01  2.772E-01
   1   13    4     8     3    1.6367E+02 -1.8163E+00   1.6549E+02  0.000E+00  0.000E+00  0.000E+00  1.01229E+03  2.917E+00  4.229E+01  4.309E+00 -1.405E-01
   1   13    3     8     4    1.6549E+02 -3.3653E+00   1.6885E+02  0.000E+00  0.000E+00  0.000E+00  1.00606E+03  2.934E+00  4.254E+01  4.335E+00 -2.588E-01
   1   13    2     8     5    1.6885E+02 -2.4848E+00   1.7134E+02  0.000E+00  0.000E+00  0.000E+00  9.99828E+02  2.953E+00  4.282E+01  4.363E+00 -1.898E-01
   1   13    1     8     6    1.7134E+02 -1.9374E+00   1.7327E+02  0.000E+00  0.000E+00  0.000E+00  9.94842E+02  2.967E+00  4.302E+01  2.631E+00 -2.455E-01
   1    8    6     9     1    0.0000E+00  0.0000E+00   0.0000E+00  0.000E+00  0.000E+00  0.000E+00  1.07875E+03  0.000E+00  4.000E+00  0.000E+00  1.000E+00
   1    8    5     9     2    0.0000E+00  0.0000E+00   0.0000E+00  0.000E+00  0.000E+00  0.000E+00  1.07825E+03  0.000E+00  4.000E+00  0.000E+00  1.000E+00





UNSATURATED ZONE PACKAGE VOLUMETRIC BUDGET FOR  TIME STEP    30 STRESS PERIOD   27
  ------------------------------------------------------------------------------



     CUMULATIVE VOLUMES      L**3       RATES FOR THIS TIME STEP      L**3/T
     ------------------                 ------------------------

           IN:                                      IN:
           ---                                      ---
        INFILTRATION =  1267717296.7952          INFILTRATION =           4.4075

          OUT:                                     OUT:
          ----                                     ----
              UZF ET =  1002632407.3540                UZF ET =           0.7250
        UZF RECHARGE =     4288169.4541          UZF RECHARGE =           0.0999

            IN - OUT =   260796719.9870              IN - OUT =           3.5826

          STORAGE:                                 STORAGE:
          --------                                 --------
      STORAGE CHANGE =   260796704.7088        STORAGE CHANGE =           3.5826

 PERCENT DISCREPANCY IS DIFFERENCE BETWEEN IN-OUT MINUS CHANGE IN STORAGE
 DIVIDED BY THE AVERAGE OF IN AND OUT TIMES 100

 PERCENT DISCREPANCY =           0.00     PERCENT DISCREPANCY =           0.00






1
  VOLUMETRIC BUDGET FOR AGRICULTURAL FIELDS AT  END OF TIME STEP   30, STRESS PERIOD  27
  ------------------------------------------------------------------------------

     CUMULATIVE VOLUMES      L**3       RATES FOR THIS TIME STEP      L**3/T
     ------------------                 ------------------------

           IN:                                      IN:
           ---                                      ---
               AG WELLS  =   599544832.0000                 AG WELLS  =           0.0000
      DIVERSION SEGMENTS =   366911456.0000        DIVERSION SEGMENTS =           0.0000
           GW IRRIGATION =           0.0000             GW IRRIGATION =           0.0000
           SW IRRIGATION =           0.0000             SW IRRIGATION =           0.0000
        SYSTEM LOSSES GW =           0.0000          SYSTEM LOSSES GW =           0.0000
        SYSTEM LOSSES SW =           0.0000          SYSTEM LOSSES SW =           0.0000

                TOTAL IN =   966456320.0000                  TOTAL IN =           0.0000

          OUT:                                     OUT:
          ----                                     ----
               AG WELLS  =           0.0000                 AG WELLS  =           0.0000
      DIVERSION SEGMENTS =           0.0000        DIVERSION SEGMENTS =           0.0000
           GW IRRIGATION =   599544832.0000             GW IRRIGATION =           0.0000
           SW IRRIGATION =   366918816.0000             SW IRRIGATION =           0.0000
        SYSTEM LOSSES GW =           0.0000          SYSTEM LOSSES GW =           0.0000
        SYSTEM LOSSES SW =           0.0000          SYSTEM LOSSES SW =           0.0000

               TOTAL OUT =   966463616.0000                 TOTAL OUT =           0.0000

                IN - OUT =       -7296.0000                  IN - OUT =           0.0000

     PERCENT DISCREPANCY =          -0.00         PERCENT DISCREPANCY =           0.00



1
  VOLUMETRIC BUDGET FOR ENTIRE MODEL AT END OF TIME STEP   30, STRESS PERIOD  27
  ------------------------------------------------------------------------------

     CUMULATIVE VOLUMES      L**3       RATES FOR THIS TIME STEP      L**3/T
     ------------------                 ------------------------

           IN:                                      IN:
           ---                                      ---
             STORAGE     =   904373056.0000               STORAGE     =           3.5968
       CONSTANT HEAD     =           0.0000         CONSTANT HEAD     =           0.0000
     HEAD DEP BOUNDS     =    19728264.0000       HEAD DEP BOUNDS     =           0.2887
      STREAM LEAKAGE     =   802784384.0000        STREAM LEAKAGE     =          12.0783
        UZF RECHARGE     =     4288169.0000          UZF RECHARGE     =       9.9852E-02
               GW ET     =           0.0000                 GW ET     =           0.0000
     SURFACE LEAKAGE     =           0.0000       SURFACE LEAKAGE     =           0.0000
           AG WELLS      =           0.0000             AG WELLS      =           0.0000

                TOTAL IN =  1731173760.0000                  TOTAL IN =          16.0637

          OUT:                                     OUT:
          ----                                     ----
             STORAGE     =   417539424.0000               STORAGE     =           6.1725
       CONSTANT HEAD     =           0.0000         CONSTANT HEAD     =           0.0000
     HEAD DEP BOUNDS     =    19705916.0000       HEAD DEP BOUNDS     =           0.2880
      STREAM LEAKAGE     =   694390592.0000        STREAM LEAKAGE     =           9.6037
        UZF RECHARGE     =           0.0000          UZF RECHARGE     =           0.0000
               GW ET     =           0.0000                 GW ET     =           0.0000
     SURFACE LEAKAGE     =           0.0000       SURFACE LEAKAGE     =           0.0000
           AG WELLS      =   599544832.0000             AG WELLS      =           0.0000

               TOTAL OUT =  1731180800.0000                 TOTAL OUT =          16.0643

                IN - OUT =       -7040.0000                  IN - OUT =      -5.5885E-04

     PERCENT DISCREPANCY =          -0.00         PERCENT DISCREPANCY =          -0.00






         TIME SUMMARY AT END OF TIME STEP   30 IN STRESS PERIOD   27
                    SECONDS     MINUTES      HOURS       DAYS        YEARS
                    -----------------------------------------------------------
   TIME STEP LENGTH  87667.      1461.1      24.352      1.0147     2.77799E-03
 STRESS PERIOD TIME 2.63000E+06  43833.      730.56      30.440     8.33397E-02
         TOTAL TIME 6.84668E+07 1.14111E+06  19019.      792.44      2.1696    
1
1
                            STRESS PERIOD NO.   28, LENGTH =   2630000.    
                            -----------------------------------------------

                              NUMBER OF TIME STEPS =    30

                               MULTIPLIER FOR DELT =     1.000

                            INITIAL TIME STEP SIZE =   87666.66    

 REUSING NON-PARAMETER GHB CELLS FROM LAST STRESS PERIOD

      2 GHB CELLS

 REUSING STREAM SEGMENT DATA FROM LAST STRESS PERIOD



            AREAL INFILTRATION RATE
 READING ON UNIT   19 WITH FORMAT: (10F4.0)            

            1           2           3           4           5           6           7           8           9          10
 ........................................................................................................................
   1   1.2000E-09   0.000       0.000       0.000       0.000       0.000       0.000       0.000       0.000       0.000    
   2   2.1000E-09  2.0000E-09  8.0000E-10  8.5000E-09   0.000       0.000       0.000       0.000       0.000       0.000    
   3   5.0000E-10  1.1000E-09  8.8000E-09  5.5000E-09   0.000       0.000       0.000       0.000       0.000       0.000    
   4   8.5000E-09  1.1000E-09  1.1000E-09  1.1000E-09  2.0000E-09   0.000       0.000       0.000       0.000       0.000    
   5   8.5000E-09  1.1000E-09  1.1000E-09  1.1000E-09  1.1000E-09   0.000       0.000       0.000       0.000       0.000    
   6   8.5000E-09  5.2000E-09  2.1000E-09  1.1000E-09  1.5000E-09   0.000       0.000       0.000       0.000       0.000    
   7   8.5000E-09  5.2000E-09  2.1000E-09  1.2000E-09  2.0000E-09   0.000       0.000       0.000       0.000       0.000    
   8   5.0000E-10  5.2000E-09  2.1000E-09  1.2000E-09  5.0000E-09   0.000       0.000       0.000       0.000       0.000    
   9   5.0000E-10  5.2000E-09  2.1000E-09  1.2000E-09  5.0000E-09   0.000       0.000       0.000       0.000       0.000    
  10   5.0000E-10  5.2000E-09  2.1000E-09  1.2000E-09  5.8000E-09   0.000       0.000       0.000       0.000       0.000    
  11   1.0000E-10  1.1000E-09  1.1000E-09  1.2000E-09  5.0000E-09   0.000       0.000       0.000       0.000       0.000    
  12   1.1000E-09  1.1000E-09  1.1000E-09  1.1000E-09  2.0000E-09   0.000       0.000       0.000       0.000       0.000    
  13   1.1000E-09  2.2000E-09  2.2000E-09  2.1000E-09  1.0000E-09   0.000       0.000       0.000       0.000       0.000    
  14   2.0000E-10  5.5000E-09  5.5000E-09  5.2000E-09  1.0000E-09   0.000       0.000       0.000       0.000       0.000    
  15    0.000      8.8000E-09  8.8000E-09   0.000       0.000       0.000       0.000       0.000       0.000       0.000    

                  ET RATE =  5.000000E-10

 USING ET EXTINCTION DEPTH FROM PREVIOUS STRESS PERIOD. CURRENT PERIOD IS:      28

 USING EXTINCTION WATER CONTENT FROM PREVIOUS STRESS PERIOD. CURRENT PERIOD IS:      28

 USING AIR ENTRY PRESSURE FROM PREVIOUS STRESS PERIOD. CURRENT PERIOD IS:      28

 USING ROOT PRESSURE HEAD FROM PREVIOUS STRESS PERIOD. CURRENT PERIOD IS:      28

 USING ROOT ACTIVITY FROM PREVIOUS STRESS PERIOD. CURRENT PERIOD IS:      28

 PROCESSING AG STRESS PERIOD DATA

 READING AG STRESS PERIOD DATA

 READING IRRIGATION SEGMENT

 READING IRRIGATION WELL

 READING SUPPLEMENTAL WELL

 END PROCESSING AG STRESS PERIOD DATA OPTIONS
 
 SOLVING FOR HEAD 
                                                   Max.-Head-Change                         Max.-Flux-Residual
  Residual-Control   Outer-Iter.   Inner-Iter.     Column Row Layer    Maximum-Head-Change  Column Row Layer    Maximum-Flux-Residual          L2-NORM 
          0                 1           2             4    7     1       0.1123195519E-01       4    7    1         0.5884748329E+00      0.1553863292E+01
          0                 2           2             4    7     1      -0.1092155864E-02       4    7    1        -0.5884764556E-01      0.1524821687E+00
          0                 3           1             4    7     1       0.7438478857E-04       4    7    1         0.4119335390E-02      0.1089157970E-01

    ------------------------------------------------
       NWT REQUIRED            3 OUTER ITERATIONS 
       AND A TOTAL OF          5 INNER ITERATIONS.
    ------------------------------------------------

 NO OUTPUT CONTROL FOR STRESS PERIOD   28   TIME STEP    1
 
 SOLVING FOR HEAD 
                                                   Max.-Head-Change                         Max.-Flux-Residual
  Residual-Control   Outer-Iter.   Inner-Iter.     Column Row Layer    Maximum-Head-Change  Column Row Layer    Maximum-Flux-Residual          L2-NORM 
          0                 1           2             4    7     1       0.1113973724E-01       4    7    1         0.5836125806E+00      0.1598574154E+01
          0                 2           2             4    7     1      -0.1083187897E-02       4    7    1        -0.5836141695E-01      0.1577765786E+00
          0                 3           1             3   13     1       0.7389554423E-04       3   13    1         0.4225878685E-02      0.1154164931E-01

    ------------------------------------------------
       NWT REQUIRED            3 OUTER ITERATIONS 
       AND A TOTAL OF          5 INNER ITERATIONS.
    ------------------------------------------------

 NO OUTPUT CONTROL FOR STRESS PERIOD   28   TIME STEP    2
 
 SOLVING FOR HEAD 
                                                   Max.-Head-Change                         Max.-Flux-Residual
  Residual-Control   Outer-Iter.   Inner-Iter.     Column Row Layer    Maximum-Head-Change  Column Row Layer    Maximum-Flux-Residual          L2-NORM 
          0                 1           2             4    7     1       0.1104890293E-01       4    7    1         0.5788237458E+00      0.1576633137E+01
          0                 2           2             4    7     1      -0.1074354515E-02       4    7    1        -0.5788253016E-01      0.1553362146E+00
          0                 3           1             4    7     1       0.7317243174E-04       4    7    1         0.4051777345E-02      0.1127520756E-01

    ------------------------------------------------
       NWT REQUIRED            3 OUTER ITERATIONS 
       AND A TOTAL OF          5 INNER ITERATIONS.
    ------------------------------------------------

 NO OUTPUT CONTROL FOR STRESS PERIOD   28   TIME STEP    3
 
 SOLVING FOR HEAD 
                                                   Max.-Head-Change                         Max.-Flux-Residual
  Residual-Control   Outer-Iter.   Inner-Iter.     Column Row Layer    Maximum-Head-Change  Column Row Layer    Maximum-Flux-Residual          L2-NORM 
          0                 1           2             4    7     1       0.1095941246E-01       4    7    1         0.5741066515E+00      0.1556776295E+01
          0                 2           2             4    7     1      -0.1065651856E-02       4    7    1        -0.5741081754E-01      0.1531372757E+00
          0                 3           1             4    7     1       0.7257973785E-04       4    7    1         0.4018757485E-02      0.1103864880E-01

    ------------------------------------------------
       NWT REQUIRED            3 OUTER ITERATIONS 
       AND A TOTAL OF          5 INNER ITERATIONS.
    ------------------------------------------------

 NO OUTPUT CONTROL FOR STRESS PERIOD   28   TIME STEP    4
 
 SOLVING FOR HEAD 
                                                   Max.-Head-Change                         Max.-Flux-Residual
  Residual-Control   Outer-Iter.   Inner-Iter.     Column Row Layer    Maximum-Head-Change  Column Row Layer    Maximum-Flux-Residual          L2-NORM 
          0                 1           2             4    7     1       0.1087109494E-01       4    7    1         0.5694519092E+00      0.1538688762E+01
          0                 2           2             4    7     1      -0.1057063293E-02       4    7    1        -0.5694534019E-01      0.1511576450E+00
          0                 3           1             4    7     1       0.7199481370E-04       4    7    1         0.3986174082E-02      0.1083014171E-01

    ------------------------------------------------
       NWT REQUIRED            3 OUTER ITERATIONS 
       AND A TOTAL OF          5 INNER ITERATIONS.
    ------------------------------------------------

 NO OUTPUT CONTROL FOR STRESS PERIOD   28   TIME STEP    5
 
 SOLVING FOR HEAD 
                                                   Max.-Head-Change                         Max.-Flux-Residual
  Residual-Control   Outer-Iter.   Inner-Iter.     Column Row Layer    Maximum-Head-Change  Column Row Layer    Maximum-Flux-Residual          L2-NORM 
          0                 1           2             4    7     1       0.1078406458E-01       4    7    1         0.5648653061E+00      0.1522106890E+01
          0                 2           2             4    7     1      -0.1048599934E-02       4    7    1        -0.5648667685E-01      0.1493598750E+00
          0                 3           1             4    7     1       0.7141841595E-04       4    7    1         0.3954067673E-02      0.1064900455E-01

    ------------------------------------------------
       NWT REQUIRED            3 OUTER ITERATIONS 
       AND A TOTAL OF          5 INNER ITERATIONS.
    ------------------------------------------------

 NO OUTPUT CONTROL FOR STRESS PERIOD   28   TIME STEP    6
 
 SOLVING FOR HEAD 
                                                   Max.-Head-Change                         Max.-Flux-Residual
  Residual-Control   Outer-Iter.   Inner-Iter.     Column Row Layer    Maximum-Head-Change  Column Row Layer    Maximum-Flux-Residual          L2-NORM 
          0                 1           2             4    7     1       0.1069828368E-01       4    7    1         0.5603454401E+00      0.1506873640E+01
          0                 2           2             4    7     1      -0.1040258103E-02       4    7    1        -0.5603468732E-01      0.1484581518E+00
          0                 3           1             4    7     1       0.7085029324E-04       4    7    1         0.3922428400E-02      0.1087251922E-01

    ------------------------------------------------
       NWT REQUIRED            3 OUTER ITERATIONS 
       AND A TOTAL OF          5 INNER ITERATIONS.
    ------------------------------------------------

 NO OUTPUT CONTROL FOR STRESS PERIOD   28   TIME STEP    7
 
 SOLVING FOR HEAD 
                                                   Max.-Head-Change                         Max.-Flux-Residual
  Residual-Control   Outer-Iter.   Inner-Iter.     Column Row Layer    Maximum-Head-Change  Column Row Layer    Maximum-Flux-Residual          L2-NORM 
          0                 1           2             4    7     1       0.1061359173E-01       4    7    1         0.5558830332E+00      0.1496847061E+01
          0                 2           2             4    7     1      -0.1032022195E-02       4    7    1        -0.5558844375E-01      0.1475348124E+00
          0                 3           1             4    7     1       0.7028938362E-04       4    7    1         0.3891191352E-02      0.1083035748E-01

    ------------------------------------------------
       NWT REQUIRED            3 OUTER ITERATIONS 
       AND A TOTAL OF          5 INNER ITERATIONS.
    ------------------------------------------------

 NO OUTPUT CONTROL FOR STRESS PERIOD   28   TIME STEP    8
 
 SOLVING FOR HEAD 
                                                   Max.-Head-Change                         Max.-Flux-Residual
  Residual-Control   Outer-Iter.   Inner-Iter.     Column Row Layer    Maximum-Head-Change  Column Row Layer    Maximum-Flux-Residual          L2-NORM 
          0                 1           2             4    7     1       0.1053009767E-01       4    7    1         0.5514844109E+00      0.1482270716E+01
          0                 2           2             4    7     1      -0.1023902804E-02       4    7    1        -0.5514857873E-01      0.1458329582E+00
          0                 3           1             4    7     1       0.6973640942E-04       4    7    1         0.3860400838E-02      0.1060324643E-01

    ------------------------------------------------
       NWT REQUIRED            3 OUTER ITERATIONS 
       AND A TOTAL OF          5 INNER ITERATIONS.
    ------------------------------------------------

 NO OUTPUT CONTROL FOR STRESS PERIOD   28   TIME STEP    9
 
 SOLVING FOR HEAD 
                                                   Max.-Head-Change                         Max.-Flux-Residual
  Residual-Control   Outer-Iter.   Inner-Iter.     Column Row Layer    Maximum-Head-Change  Column Row Layer    Maximum-Flux-Residual          L2-NORM 
          0                 1           2             4    7     1       0.1044776715E-01       4    7    1         0.5471478973E+00      0.1468830934E+01
          0                 2           2             4    7     1      -0.1015896590E-02       4    7    1        -0.5471492465E-01      0.1442990885E+00
          0                 3           1             4    7     1       0.6919114177E-04       4    7    1         0.3830045058E-02      0.1040843594E-01

    ------------------------------------------------
       NWT REQUIRED            3 OUTER ITERATIONS 
       AND A TOTAL OF          5 INNER ITERATIONS.
    ------------------------------------------------

 NO OUTPUT CONTROL FOR STRESS PERIOD   28   TIME STEP   10
 
 SOLVING FOR HEAD 
                                                   Max.-Head-Change                         Max.-Flux-Residual
  Residual-Control   Outer-Iter.   Inner-Iter.     Column Row Layer    Maximum-Head-Change  Column Row Layer    Maximum-Flux-Residual          L2-NORM 
          0                 1           2             4    7     1       0.1036657852E-01       4    7    1         0.5428717122E+00      0.1456345588E+01
          0                 2           2             4    7     1      -0.1008001436E-02       4    7    1        -0.5428730350E-01      0.1429013592E+00
          0                 3           1             4    7     1       0.6865343738E-04       4    7    1         0.3800111584E-02      0.1024093258E-01

    ------------------------------------------------
       NWT REQUIRED            3 OUTER ITERATIONS 
       AND A TOTAL OF          5 INNER ITERATIONS.
    ------------------------------------------------

 NO OUTPUT CONTROL FOR STRESS PERIOD   28   TIME STEP   11
 
 SOLVING FOR HEAD 
                                                   Max.-Head-Change                         Max.-Flux-Residual
  Residual-Control   Outer-Iter.   Inner-Iter.     Column Row Layer    Maximum-Head-Change  Column Row Layer    Maximum-Flux-Residual          L2-NORM 
          0                 1           2             4    7     1       0.1028636841E-01       4    7    1         0.5386474080E+00      0.1444638500E+01
          0                 2           2             4    7     1      -0.1000201451E-02       4    7    1        -0.5386487051E-01      0.1416194961E+00
          0                 3           1             4    7     1       0.6812221404E-04       4    7    1         0.3770541287E-02      0.1009569735E-01

    ------------------------------------------------
       NWT REQUIRED            3 OUTER ITERATIONS 
       AND A TOTAL OF          5 INNER ITERATIONS.
    ------------------------------------------------

 NO OUTPUT CONTROL FOR STRESS PERIOD   28   TIME STEP   12
 
 SOLVING FOR HEAD 
                                                   Max.-Head-Change                         Max.-Flux-Residual
  Residual-Control   Outer-Iter.   Inner-Iter.     Column Row Layer    Maximum-Head-Change  Column Row Layer    Maximum-Flux-Residual          L2-NORM 
          0                 1           2             4    7     1       0.1020738647E-01       4    7    1         0.5344884892E+00      0.1433586517E+01
          0                 2           2             4    7     1      -0.9925209329E-03       4    7    1        -0.5344897610E-01      0.1404295333E+00
          0                 3           1             4    7     1       0.6759912600E-04       4    7    1         0.3741428695E-02      0.9968539502E-02

    ------------------------------------------------
       NWT REQUIRED            3 OUTER ITERATIONS 
       AND A TOTAL OF          5 INNER ITERATIONS.
    ------------------------------------------------

 NO OUTPUT CONTROL FOR STRESS PERIOD   28   TIME STEP   13
 
 SOLVING FOR HEAD 
                                                   Max.-Head-Change                         Max.-Flux-Residual
  Residual-Control   Outer-Iter.   Inner-Iter.     Column Row Layer    Maximum-Head-Change  Column Row Layer    Maximum-Flux-Residual          L2-NORM 
          0                 1           2             4    7     1       0.1012933179E-01       4    7    1         0.5303785986E+00      0.1423084676E+01
          0                 2           2             4    7     1      -0.9849305975E-03       4    7    1        -0.5303798460E-01      0.1393182638E+00
          0                 3           1             4    7     1       0.6708217962E-04       4    7    1         0.3712659309E-02      0.9856142530E-02

    ------------------------------------------------
       NWT REQUIRED            3 OUTER ITERATIONS 
       AND A TOTAL OF          5 INNER ITERATIONS.
    ------------------------------------------------

 NO OUTPUT CONTROL FOR STRESS PERIOD   28   TIME STEP   14
 
 SOLVING FOR HEAD 
                                                   Max.-Head-Change                         Max.-Flux-Residual
  Residual-Control   Outer-Iter.   Inner-Iter.     Column Row Layer    Maximum-Head-Change  Column Row Layer    Maximum-Flux-Residual          L2-NORM 
          0                 1           2             4    7     1       0.1005231963E-01       4    7    1         0.5263241117E+00      0.1413044625E+01
          0                 2           2             4    7     1      -0.9774416612E-03       4    7    1        -0.5263253356E-01      0.1382690929E+00
          0                 3           1             4    7     1       0.6657213890E-04       4    7    1         0.3684277754E-02      0.9754806137E-02

    ------------------------------------------------
       NWT REQUIRED            3 OUTER ITERATIONS 
       AND A TOTAL OF          5 INNER ITERATIONS.
    ------------------------------------------------

 NO OUTPUT CONTROL FOR STRESS PERIOD   28   TIME STEP   15
 
 SOLVING FOR HEAD 
                                                   Max.-Head-Change                         Max.-Flux-Residual
  Residual-Control   Outer-Iter.   Inner-Iter.     Column Row Layer    Maximum-Head-Change  Column Row Layer    Maximum-Flux-Residual          L2-NORM 
          0                 1           2             4    7     1       0.9976191741E-02       4    7    1         0.5223163520E+00      0.1403402274E+01
          0                 2           2             4    7     1      -0.9700387230E-03       4    7    1        -0.5223175525E-01      0.1372720765E+00
          0                 3           1             4    7     1       0.6606795430E-04       4    7    1         0.3656223268E-02      0.9662052815E-02

    ------------------------------------------------
       NWT REQUIRED            3 OUTER ITERATIONS 
       AND A TOTAL OF          5 INNER ITERATIONS.
    ------------------------------------------------

 NO OUTPUT CONTROL FOR STRESS PERIOD   28   TIME STEP   16
 
 SOLVING FOR HEAD 
                                                   Max.-Head-Change                         Max.-Flux-Residual
  Residual-Control   Outer-Iter.   Inner-Iter.     Column Row Layer    Maximum-Head-Change  Column Row Layer    Maximum-Flux-Residual          L2-NORM 
          0                 1           2             4    7     1       0.9901201296E-02       4    7    1         0.5183690930E+00      0.1394111488E+01
          0                 2           2             4    7     1      -0.9627464175E-03       4    7    1        -0.5183702708E-01      0.1363207244E+00
          0                 3           1             4    7     1       0.6557130384E-04       4    7    1         0.3628592310E-02      0.9577100192E-02

    ------------------------------------------------
       NWT REQUIRED            3 OUTER ITERATIONS 
       AND A TOTAL OF          5 INNER ITERATIONS.
    ------------------------------------------------

 NO OUTPUT CONTROL FOR STRESS PERIOD   28   TIME STEP   17
 
 SOLVING FOR HEAD 
                                                   Max.-Head-Change                         Max.-Flux-Residual
  Residual-Control   Outer-Iter.   Inner-Iter.     Column Row Layer    Maximum-Head-Change  Column Row Layer    Maximum-Flux-Residual          L2-NORM 
          0                 1           2             4    7     1       0.9827183736E-02       4    7    1         0.5144734835E+00      0.1385117786E+01
          0                 2           2             4    7     1      -0.9555487372E-03       4    7    1        -0.5144746392E-01      0.1354079008E+00
          0                 3           1             4    7     1       0.6508109705E-04       4    7    1         0.3601322897E-02      0.9498696438E-02

    ------------------------------------------------
       NWT REQUIRED            3 OUTER ITERATIONS 
       AND A TOTAL OF          5 INNER ITERATIONS.
    ------------------------------------------------

 NO OUTPUT CONTROL FOR STRESS PERIOD   28   TIME STEP   18
 
 SOLVING FOR HEAD 
                                                   Max.-Head-Change                         Max.-Flux-Residual
  Residual-Control   Outer-Iter.   Inner-Iter.     Column Row Layer    Maximum-Head-Change  Column Row Layer    Maximum-Flux-Residual          L2-NORM 
          0                 1           2             4    7     1       0.9753983767E-02       4    7    1         0.5106209912E+00      0.1376386622E+01
          0                 2           2             4    7     1      -0.9484367964E-03       4    7    1        -0.5106221254E-01      0.1345350222E+00
          0                 3           1             4    7     1       0.6459673005E-04       4    7    1         0.3574355310E-02      0.9426228808E-02

    ------------------------------------------------
       NWT REQUIRED            3 OUTER ITERATIONS 
       AND A TOTAL OF          5 INNER ITERATIONS.
    ------------------------------------------------

 NO OUTPUT CONTROL FOR STRESS PERIOD   28   TIME STEP   19
 
 SOLVING FOR HEAD 
                                                   Max.-Head-Change                         Max.-Flux-Residual
  Residual-Control   Outer-Iter.   Inner-Iter.     Column Row Layer    Maximum-Head-Change  Column Row Layer    Maximum-Flux-Residual          L2-NORM 
          0                 1           2             4    7     1       0.9681692063E-02       4    7    1         0.5068178855E+00      0.1367883393E+01
          0                 2           2             4    7     1      -0.9414007366E-03       4    7    1        -0.5068189988E-01      0.1336773807E+00
          0                 3           1             4    7     1       0.6411753034E-04       4    7    1         0.3547733432E-02      0.9357087952E-02

    ------------------------------------------------
       NWT REQUIRED            3 OUTER ITERATIONS 
       AND A TOTAL OF          5 INNER ITERATIONS.
    ------------------------------------------------

 NO OUTPUT CONTROL FOR STRESS PERIOD   28   TIME STEP   20
 
 SOLVING FOR HEAD 
                                                   Max.-Head-Change                         Max.-Flux-Residual
  Residual-Control   Outer-Iter.   Inner-Iter.     Column Row Layer    Maximum-Head-Change  Column Row Layer    Maximum-Flux-Residual          L2-NORM 
          0                 1           2             4    7     1       0.9610442119E-02       4    7    1         0.5030698605E+00      0.1359584523E+01
          0                 2           2             4    7     1      -0.9344722293E-03       4    7    1        -0.5030709537E-01      0.1328513167E+00
          0                 3           1             4    7     1       0.6364565461E-04       4    7    1         0.3521497121E-02      0.9292024342E-02

    ------------------------------------------------
       NWT REQUIRED            3 OUTER ITERATIONS 
       AND A TOTAL OF          5 INNER ITERATIONS.
    ------------------------------------------------

 NO OUTPUT CONTROL FOR STRESS PERIOD   28   TIME STEP   21
 
 SOLVING FOR HEAD 
                                                   Max.-Head-Change                         Max.-Flux-Residual
  Residual-Control   Outer-Iter.   Inner-Iter.     Column Row Layer    Maximum-Head-Change  Column Row Layer    Maximum-Flux-Residual          L2-NORM 
          0                 1           2             4    7     1       0.9539939052E-02       4    7    1         0.4993608663E+00      0.1351475232E+01
          0                 2           2             4    7     1      -0.9276163523E-03       4    7    1        -0.4993619394E-01      0.1320469765E+00
          0                 3           1             4    7     1       0.6317872617E-04       4    7    1         0.3495534052E-02      0.9230067202E-02

    ------------------------------------------------
       NWT REQUIRED            3 OUTER ITERATIONS 
       AND A TOTAL OF          5 INNER ITERATIONS.
    ------------------------------------------------

 NO OUTPUT CONTROL FOR STRESS PERIOD   28   TIME STEP   22
 
 SOLVING FOR HEAD 
                                                   Max.-Head-Change                         Max.-Flux-Residual
  Residual-Control   Outer-Iter.   Inner-Iter.     Column Row Layer    Maximum-Head-Change  Column Row Layer    Maximum-Flux-Residual          L2-NORM 
          0                 1           2             4    7     1       0.9470303610E-02       4    7    1         0.4956979240E+00      0.1343535176E+01
          0                 2           2             4    7     1      -0.9208448596E-03       4    7    1        -0.4956989777E-01      0.1312626162E+00
          0                 3           1             4    7     1       0.6271754345E-04       4    7    1         0.3469893299E-02      0.9170440230E-02

    ------------------------------------------------
       NWT REQUIRED            3 OUTER ITERATIONS 
       AND A TOTAL OF          5 INNER ITERATIONS.
    ------------------------------------------------

 NO OUTPUT CONTROL FOR STRESS PERIOD   28   TIME STEP   23
 
 SOLVING FOR HEAD 
                                                   Max.-Head-Change                         Max.-Flux-Residual
  Residual-Control   Outer-Iter.   Inner-Iter.     Column Row Layer    Maximum-Head-Change  Column Row Layer    Maximum-Flux-Residual          L2-NORM 
          0                 1           2             4    7     1       0.9401518836E-02       4    7    1         0.4920799673E+00      0.1335754709E+01
          0                 2           2             4    7     1      -0.9141561020E-03       4    7    1        -0.4920810021E-01      0.1304964304E+00
          0                 3           1             4    7     1       0.6226199533E-04       4    7    1         0.3444567487E-02      0.9113141403E-02

    ------------------------------------------------
       NWT REQUIRED            3 OUTER ITERATIONS 
       AND A TOTAL OF          5 INNER ITERATIONS.
    ------------------------------------------------

 NO OUTPUT CONTROL FOR STRESS PERIOD   28   TIME STEP   24
 
 SOLVING FOR HEAD 
                                                   Max.-Head-Change                         Max.-Flux-Residual
  Residual-Control   Outer-Iter.   Inner-Iter.     Column Row Layer    Maximum-Head-Change  Column Row Layer    Maximum-Flux-Residual          L2-NORM 
          0                 1           2             4    7     1       0.9333570217E-02       4    7    1         0.4885061171E+00      0.1328125543E+01
          0                 2           2             4    7     1      -0.9075486580E-03       4    7    1        -0.4885071331E-01      0.1297467207E+00
          0                 3           1             4    7     1       0.6181198536E-04       4    7    1         0.3419550406E-02      0.9057897581E-02

    ------------------------------------------------
       NWT REQUIRED            3 OUTER ITERATIONS 
       AND A TOTAL OF          5 INNER ITERATIONS.
    ------------------------------------------------

 NO OUTPUT CONTROL FOR STRESS PERIOD   28   TIME STEP   25
 
 SOLVING FOR HEAD 
                                                   Max.-Head-Change                         Max.-Flux-Residual
  Residual-Control   Outer-Iter.   Inner-Iter.     Column Row Layer    Maximum-Head-Change  Column Row Layer    Maximum-Flux-Residual          L2-NORM 
          0                 1           2             4    7     1       0.9266440645E-02       4    7    1         0.4849756215E+00      0.1320629895E+01
          0                 2           2             4    7     1      -0.9010208734E-03       4    7    1        -0.4849766195E-01      0.1290119165E+00
          0                 3           1             4    7     1       0.6136740042E-04       4    7    1         0.3394836825E-02      0.9004230793E-02

    ------------------------------------------------
       NWT REQUIRED            3 OUTER ITERATIONS 
       AND A TOTAL OF          5 INNER ITERATIONS.
    ------------------------------------------------

 NO OUTPUT CONTROL FOR STRESS PERIOD   28   TIME STEP   26
 
 SOLVING FOR HEAD 
                                                   Max.-Head-Change                         Max.-Flux-Residual
  Residual-Control   Outer-Iter.   Inner-Iter.     Column Row Layer    Maximum-Head-Change  Column Row Layer    Maximum-Flux-Residual          L2-NORM 
          0                 1           2             4    7     1       0.9200112844E-02       4    7    1         0.4814875929E+00      0.1313260191E+01
          0                 2           2             4    7     1      -0.8945710579E-03       4    7    1        -0.4814885731E-01      0.1282906332E+00
          0                 3           1             4    7     1       0.6092812488E-04       4    7    1         0.3370420500E-02      0.8951999910E-02

    ------------------------------------------------
       NWT REQUIRED            3 OUTER ITERATIONS 
       AND A TOTAL OF          5 INNER ITERATIONS.
    ------------------------------------------------

 NO OUTPUT CONTROL FOR STRESS PERIOD   28   TIME STEP   27
 
 SOLVING FOR HEAD 
                                                   Max.-Head-Change                         Max.-Flux-Residual
  Residual-Control   Outer-Iter.   Inner-Iter.     Column Row Layer    Maximum-Head-Change  Column Row Layer    Maximum-Flux-Residual          L2-NORM 
          0                 1           2             4    7     1       0.9134572518E-02       4    7    1         0.4780411359E+00      0.1306008268E+01
          0                 2           2             4    7     1      -0.8881978300E-03       4    7    1        -0.4780420989E-01      0.1275819507E+00
          0                 3           1             4    7     1       0.6049406563E-04       4    7    1         0.3346295183E-02      0.8900894836E-02

    ------------------------------------------------
       NWT REQUIRED            3 OUTER ITERATIONS 
       AND A TOTAL OF          5 INNER ITERATIONS.
    ------------------------------------------------

 NO OUTPUT CONTROL FOR STRESS PERIOD   28   TIME STEP   28
 
 SOLVING FOR HEAD 
                                                   Max.-Head-Change                         Max.-Flux-Residual
  Residual-Control   Outer-Iter.   Inner-Iter.     Column Row Layer    Maximum-Head-Change  Column Row Layer    Maximum-Flux-Residual          L2-NORM 
          0                 1           2             4    7     1       0.9069806876E-02       4    7    1         0.4746355091E+00      0.1298872702E+01
          0                 2           2             4    7     1      -0.8818999452E-03       4    7    1        -0.4746364551E-01      0.1268856306E+00
          0                 3           1             4    7     1       0.6006513757E-04       4    7    1         0.3322455701E-02      0.8851128698E-02

    ------------------------------------------------
       NWT REQUIRED            3 OUTER ITERATIONS 
       AND A TOTAL OF          5 INNER ITERATIONS.
    ------------------------------------------------

 NO OUTPUT CONTROL FOR STRESS PERIOD   28   TIME STEP   29
 
 SOLVING FOR HEAD 
                                                   Max.-Head-Change                         Max.-Flux-Residual
  Residual-Control   Outer-Iter.   Inner-Iter.     Column Row Layer    Maximum-Head-Change  Column Row Layer    Maximum-Flux-Residual          L2-NORM 
          0                 1           2             4    7     1       0.9005798282E-02       4    7    1         0.4712700491E+00      0.1291842036E+01
          0                 2           2             4    7     1      -0.8756756791E-03       4    7    1        -0.4712709787E-01      0.1262002049E+00
          0                 3           1             4    7     1       0.5964122296E-04       4    7    1         0.3298897376E-02      0.8802298234E-02

    ------------------------------------------------
       NWT REQUIRED            3 OUTER ITERATIONS 
       AND A TOTAL OF          5 INNER ITERATIONS.
    ------------------------------------------------

 NO OUTPUT CONTROL FOR STRESS PERIOD   28   TIME STEP   30



 STREAM LISTING     PERIOD     28   STEP       30

 LAYER ROW COL. STREAM  RCH.  FLOW INTO     FLOW TO   FLOW OUT OF   OVRLND.     DIRECT     STREAM       STREAM     STREAM     STREAM   STREAMBED  STREAMBED
                SEG.NO.  NO.  STRM. RCH.    AQUIFER    STRM. RCH.    RUNOFF     PRECIP       ET          HEAD       DEPTH      WIDTH   CONDCTNC.   GRADIENT

   1    1    1     1     1    2.8874E+01  2.6239E-01   2.8612E+01  0.000E+00  0.000E+00  0.000E+00  1.09428E+03  1.233E+00  1.377E+01  6.198E-02  1.411E+00
   1    2    2     1     2    2.8612E+01  4.0592E-01   2.8206E+01  0.000E+00  0.000E+00  0.000E+00  1.08929E+03  1.229E+00  1.371E+01  9.599E-02  1.410E+00
   1    3    3     1     3    2.8206E+01  3.4575E-01   2.7860E+01  0.000E+00  0.000E+00  0.000E+00  1.08364E+03  1.224E+00  1.364E+01  8.186E-02  1.408E+00
   1    3    4     1     4    2.7860E+01  3.1803E-01   2.7542E+01  0.000E+00  0.000E+00  0.000E+00  1.07863E+03  1.219E+00  1.358E+01  7.538E-02  1.406E+00
   1    4    5     2     1    2.5542E+01  3.2904E-01   2.5213E+01  0.000E+00  0.000E+00  0.000E+00  1.07315E+03  1.218E+00  1.200E+01  7.800E-02  1.406E+00
   1    5    6     2     2    2.5213E+01  2.5260E-01   2.4960E+01  0.000E+00  0.000E+00  0.000E+00  1.06772E+03  1.210E+00  1.200E+01  6.000E-02  1.403E+00
   1    6    6     2     3    2.4960E+01  2.5217E-01   2.4708E+01  0.000E+00  0.000E+00  0.000E+00  1.06300E+03  1.203E+00  1.200E+01  6.000E-02  1.401E+00
   1    7    6     2     4    2.4708E+01  2.5172E-01   2.4457E+01  0.000E+00  0.000E+00  0.000E+00  1.05827E+03  1.195E+00  1.200E+01  6.000E-02  1.398E+00
   1    8    6     2     5    2.4457E+01  2.5128E-01   2.4205E+01  0.000E+00  0.000E+00  0.000E+00  1.05355E+03  1.188E+00  1.200E+01  6.000E-02  1.396E+00
   1    3    5     3     1    2.0000E+00  2.8252E-01   1.7175E+00  0.000E+00  0.000E+00  0.000E+00  1.07555E+03  1.909E+00  9.636E+00  7.227E-02  1.955E+00
   1    3    6     3     2    1.7175E+00  2.4905E-01   1.4684E+00  0.000E+00  0.000E+00  0.000E+00  1.07264E+03  1.727E+00  8.909E+00  6.682E-02  1.864E+00
   1    3    7     3     3    1.4684E+00  1.9718E-01   1.2712E+00  0.000E+00  0.000E+00  0.000E+00  1.06987E+03  1.555E+00  8.218E+00  5.547E-02  1.777E+00
   1    4    8     3     4    1.2712E+00  2.2567E-01   1.0456E+00  0.000E+00  0.000E+00  0.000E+00  1.06682E+03  1.364E+00  7.455E+00  6.709E-02  1.682E+00
   1    5    8     3     5    1.0456E+00  1.5790E-01   8.8768E-01  0.000E+00  0.000E+00  0.000E+00  1.06362E+03  1.164E+00  6.655E+00  4.991E-02  1.582E+00
   1    6    8     3     6    8.8768E-01  5.5980E-02   8.3170E-01  0.000E+00  0.000E+00  0.000E+00  1.06158E+03  1.036E+00  6.145E+00  1.844E-02  1.518E+00
   1    5   10     4     1    1.0000E+01  9.0919E-02   9.9091E+00  0.000E+00  0.000E+00  0.000E+00  1.07836E+03  6.368E-01  1.000E+01  2.500E-02  1.212E+00
   1    5    9     4     2    9.9091E+00  1.8158E-01   9.7275E+00  0.000E+00  0.000E+00  0.000E+00  1.07154E+03  6.315E-01  1.000E+01  5.000E-02  1.211E+00
   1    6    8     4     3    9.7275E+00  1.2689E-01   9.6006E+00  0.000E+00  0.000E+00  0.000E+00  1.06381E+03  6.256E-01  1.000E+01  3.500E-02  1.209E+00
   1    6    8     5     1    1.0432E+01  2.2686E-01   1.0205E+01  0.000E+00  0.000E+00  0.000E+00  1.05868E+03  6.790E-01  1.542E+01  6.166E-02  1.226E+00
   1    7    7     5     2    1.0205E+01  2.7894E-01   9.9265E+00  0.000E+00  0.000E+00  0.000E+00  1.05417E+03  6.732E-01  1.519E+01  7.594E-02  1.224E+00
   1    8    7     5     3    9.9265E+00  1.9221E-01   9.7343E+00  0.000E+00  0.000E+00  0.000E+00  1.04992E+03  6.676E-01  1.497E+01  5.241E-02  1.223E+00
   1    8    6     5     4    9.7343E+00  1.3577E-01   9.5985E+00  0.000E+00  0.000E+00  0.000E+00  1.04691E+03  6.637E-01  1.482E+01  3.706E-02  1.221E+00
   1    9    6     6     1    3.3804E+01  2.6759E-01   3.3536E+01  0.000E+00  0.000E+00  0.000E+00  1.04419E+03  1.460E+00  1.200E+01  6.000E-02  1.487E+00
   1   10    7     6     2    3.3536E+01  2.6717E-01   3.3269E+01  0.000E+00  0.000E+00  0.000E+00  1.03963E+03  1.453E+00  1.200E+01  6.000E-02  1.484E+00
   1   11    7     6     3    3.3269E+01  2.6676E-01   3.3002E+01  0.000E+00  0.000E+00  0.000E+00  1.03508E+03  1.446E+00  1.200E+01  6.000E-02  1.482E+00
   1   12    7     6     4    3.3002E+01  2.6634E-01   3.2736E+01  0.000E+00  0.000E+00  0.000E+00  1.03053E+03  1.439E+00  1.200E+01  6.000E-02  1.480E+00
   1   13    7     6     5    3.2736E+01  1.6731E-02   3.2719E+01  0.000E+00  0.000E+00  0.000E+00  1.02734E+03  1.435E+00  1.200E+01  2.400E-02  2.324E-01
   1   14    9     7     1    1.5000E+02  1.3803E+00   1.4862E+02  0.000E+00  0.000E+00  0.000E+00  1.03987E+03  2.288E+00  5.529E+01  5.593E-01  8.227E-01
   1   13    8     7     2    1.4862E+02  1.9720E+00   1.4665E+02  0.000E+00  0.000E+00  0.000E+00  1.03478E+03  2.279E+00  5.525E+01  6.147E-01  1.069E+00
   1   13    7     7     3    1.4665E+02  1.6980E+00   1.4495E+02  0.000E+00  0.000E+00  0.000E+00  1.02969E+03  2.269E+00  5.521E+01  5.584E-01  1.014E+00
   1   13    6     8     1    1.7767E+02  1.1768E+00   1.7649E+02  0.000E+00  0.000E+00  0.000E+00  1.02487E+03  2.998E+00  4.347E+01  4.429E-01  8.856E-01
   1   13    5     8     2    1.7649E+02  3.9614E-01   1.7610E+02  0.000E+00  0.000E+00  0.000E+00  1.01862E+03  2.993E+00  4.339E+01  4.422E-01  2.986E-01
   1   13    4     8     3    1.7610E+02 -1.7637E+00   1.7786E+02  0.000E+00  0.000E+00  0.000E+00  1.01237E+03  2.997E+00  4.346E+01  4.428E+00 -1.328E-01
   1   13    3     8     4    1.7786E+02 -3.3326E+00   1.8119E+02  0.000E+00  0.000E+00  0.000E+00  1.00614E+03  3.013E+00  4.369E+01  4.452E+00 -2.495E-01
   1   13    2     8     5    1.8119E+02 -2.4575E+00   1.8365E+02  0.000E+00  0.000E+00  0.000E+00  9.99906E+02  3.031E+00  4.395E+01  4.479E+00 -1.829E-01
   1   13    1     8     6    1.8365E+02 -1.9138E+00   1.8556E+02  0.000E+00  0.000E+00  0.000E+00  9.94920E+02  3.045E+00  4.415E+01  2.699E+00 -2.363E-01
   1    8    6     9     1    0.0000E+00  0.0000E+00   0.0000E+00  0.000E+00  0.000E+00  0.000E+00  1.07875E+03  0.000E+00  4.000E+00  0.000E+00  1.000E+00
   1    8    5     9     2    0.0000E+00  0.0000E+00   0.0000E+00  0.000E+00  0.000E+00  0.000E+00  1.07825E+03  0.000E+00  4.000E+00  0.000E+00  1.000E+00





UNSATURATED ZONE PACKAGE VOLUMETRIC BUDGET FOR  TIME STEP    30 STRESS PERIOD   28
  ------------------------------------------------------------------------------



     CUMULATIVE VOLUMES      L**3       RATES FOR THIS TIME STEP      L**3/T
     ------------------                 ------------------------

           IN:                                      IN:
           ---                                      ---
        INFILTRATION =  1279309021.3533          INFILTRATION =           4.4075

          OUT:                                     OUT:
          ----                                     ----
              UZF ET =  1004539157.2175                UZF ET =           0.7250
        UZF RECHARGE =     4709377.3850          UZF RECHARGE =           0.1349

            IN - OUT =   270060486.7507              IN - OUT =           3.5476

          STORAGE:                                 STORAGE:
          --------                                 --------
      STORAGE CHANGE =   270060471.4027        STORAGE CHANGE =           3.5476

 PERCENT DISCREPANCY IS DIFFERENCE BETWEEN IN-OUT MINUS CHANGE IN STORAGE
 DIVIDED BY THE AVERAGE OF IN AND OUT TIMES 100

 PERCENT DISCREPANCY =           0.00     PERCENT DISCREPANCY =           0.00






1
  VOLUMETRIC BUDGET FOR AGRICULTURAL FIELDS AT  END OF TIME STEP   30, STRESS PERIOD  28
  ------------------------------------------------------------------------------

     CUMULATIVE VOLUMES      L**3       RATES FOR THIS TIME STEP      L**3/T
     ------------------                 ------------------------

           IN:                                      IN:
           ---                                      ---
               AG WELLS  =   599544832.0000                 AG WELLS  =           0.0000
      DIVERSION SEGMENTS =   366911456.0000        DIVERSION SEGMENTS =           0.0000
           GW IRRIGATION =           0.0000             GW IRRIGATION =           0.0000
           SW IRRIGATION =           0.0000             SW IRRIGATION =           0.0000
        SYSTEM LOSSES GW =           0.0000          SYSTEM LOSSES GW =           0.0000
        SYSTEM LOSSES SW =           0.0000          SYSTEM LOSSES SW =           0.0000

                TOTAL IN =   966456320.0000                  TOTAL IN =           0.0000

          OUT:                                     OUT:
          ----                                     ----
               AG WELLS  =           0.0000                 AG WELLS  =           0.0000
      DIVERSION SEGMENTS =           0.0000        DIVERSION SEGMENTS =           0.0000
           GW IRRIGATION =   599544832.0000             GW IRRIGATION =           0.0000
           SW IRRIGATION =   366918816.0000             SW IRRIGATION =           0.0000
        SYSTEM LOSSES GW =           0.0000          SYSTEM LOSSES GW =           0.0000
        SYSTEM LOSSES SW =           0.0000          SYSTEM LOSSES SW =           0.0000

               TOTAL OUT =   966463616.0000                 TOTAL OUT =           0.0000

                IN - OUT =       -7296.0000                  IN - OUT =           0.0000

     PERCENT DISCREPANCY =          -0.00         PERCENT DISCREPANCY =           0.00



1
  VOLUMETRIC BUDGET FOR ENTIRE MODEL AT END OF TIME STEP   30, STRESS PERIOD  28
  ------------------------------------------------------------------------------

     CUMULATIVE VOLUMES      L**3       RATES FOR THIS TIME STEP      L**3/T
     ------------------                 ------------------------

           IN:                                      IN:
           ---                                      ---
             STORAGE     =   911913536.0000               STORAGE     =           2.5284
       CONSTANT HEAD     =           0.0000         CONSTANT HEAD     =           0.0000
     HEAD DEP BOUNDS     =    20487682.0000       HEAD DEP BOUNDS     =           0.2888
      STREAM LEAKAGE     =   836371200.0000        STREAM LEAKAGE     =          12.7783
        UZF RECHARGE     =     4709376.5000          UZF RECHARGE     =           0.1349
               GW ET     =           0.0000                 GW ET     =           0.0000
     SURFACE LEAKAGE     =           0.0000       SURFACE LEAKAGE     =           0.0000
           AG WELLS      =           0.0000             AG WELLS      =           0.0000

                TOTAL IN =  1773481728.0000                  TOTAL IN =          15.7303

          OUT:                                     OUT:
          ----                                     ----
             STORAGE     =   434835840.0000               STORAGE     =           5.9736
       CONSTANT HEAD     =           0.0000         CONSTANT HEAD     =           0.0000
     HEAD DEP BOUNDS     =    20466424.0000       HEAD DEP BOUNDS     =           0.2899
      STREAM LEAKAGE     =   718643264.0000        STREAM LEAKAGE     =           9.4676
        UZF RECHARGE     =           0.0000          UZF RECHARGE     =           0.0000
               GW ET     =           0.0000                 GW ET     =           0.0000
     SURFACE LEAKAGE     =           0.0000       SURFACE LEAKAGE     =           0.0000
           AG WELLS      =   599544832.0000             AG WELLS      =           0.0000

               TOTAL OUT =  1773490432.0000                 TOTAL OUT =          15.7311

                IN - OUT =       -8704.0000                  IN - OUT =      -7.9250E-04

     PERCENT DISCREPANCY =          -0.00         PERCENT DISCREPANCY =          -0.01






         TIME SUMMARY AT END OF TIME STEP   30 IN STRESS PERIOD   28
                    SECONDS     MINUTES      HOURS       DAYS        YEARS
                    -----------------------------------------------------------
   TIME STEP LENGTH  87667.      1461.1      24.352      1.0147     2.77799E-03
 STRESS PERIOD TIME 2.63000E+06  43833.      730.56      30.440     8.33397E-02
         TOTAL TIME 7.10967E+07 1.18494E+06  19749.      822.88      2.2529    
1
1
                            STRESS PERIOD NO.   29, LENGTH =   2630000.    
                            -----------------------------------------------

                              NUMBER OF TIME STEPS =    30

                               MULTIPLIER FOR DELT =     1.000

                            INITIAL TIME STEP SIZE =   87666.66    

 REUSING NON-PARAMETER GHB CELLS FROM LAST STRESS PERIOD

      2 GHB CELLS

 REUSING STREAM SEGMENT DATA FROM LAST STRESS PERIOD



            AREAL INFILTRATION RATE
 READING ON UNIT   19 WITH FORMAT: (10F4.0)            

            1           2           3           4           5           6           7           8           9          10
 ........................................................................................................................
   1   1.2000E-09   0.000       0.000       0.000       0.000       0.000       0.000       0.000       0.000       0.000    
   2   2.1000E-09  2.0000E-09  8.0000E-10  8.5000E-09   0.000       0.000       0.000       0.000       0.000       0.000    
   3   5.0000E-10  1.1000E-09  8.8000E-09  5.5000E-09   0.000       0.000       0.000       0.000       0.000       0.000    
   4   8.5000E-09  1.1000E-09  1.1000E-09  1.1000E-09  2.0000E-09   0.000       0.000       0.000       0.000       0.000    
   5   8.5000E-09  1.1000E-09  1.1000E-09  1.1000E-09  1.1000E-09   0.000       0.000       0.000       0.000       0.000    
   6   8.5000E-09  5.2000E-09  2.1000E-09  1.1000E-09  1.5000E-09   0.000       0.000       0.000       0.000       0.000    
   7   8.5000E-09  5.2000E-09  2.1000E-09  1.2000E-09  2.0000E-09   0.000       0.000       0.000       0.000       0.000    
   8   5.0000E-10  5.2000E-09  2.1000E-09  1.2000E-09  5.0000E-09   0.000       0.000       0.000       0.000       0.000    
   9   5.0000E-10  5.2000E-09  2.1000E-09  1.2000E-09  5.0000E-09   0.000       0.000       0.000       0.000       0.000    
  10   5.0000E-10  5.2000E-09  2.1000E-09  1.2000E-09  5.8000E-09   0.000       0.000       0.000       0.000       0.000    
  11   1.0000E-10  1.1000E-09  1.1000E-09  1.2000E-09  5.0000E-09   0.000       0.000       0.000       0.000       0.000    
  12   1.1000E-09  1.1000E-09  1.1000E-09  1.1000E-09  2.0000E-09   0.000       0.000       0.000       0.000       0.000    
  13   1.1000E-09  2.2000E-09  2.2000E-09  2.1000E-09  1.0000E-09   0.000       0.000       0.000       0.000       0.000    
  14   2.0000E-10  5.5000E-09  5.5000E-09  5.2000E-09  1.0000E-09   0.000       0.000       0.000       0.000       0.000    
  15    0.000      8.8000E-09  8.8000E-09   0.000       0.000       0.000       0.000       0.000       0.000       0.000    

                  ET RATE =  2.500000E-08

 USING ET EXTINCTION DEPTH FROM PREVIOUS STRESS PERIOD. CURRENT PERIOD IS:      29

 USING EXTINCTION WATER CONTENT FROM PREVIOUS STRESS PERIOD. CURRENT PERIOD IS:      29

 USING AIR ENTRY PRESSURE FROM PREVIOUS STRESS PERIOD. CURRENT PERIOD IS:      29

 USING ROOT PRESSURE HEAD FROM PREVIOUS STRESS PERIOD. CURRENT PERIOD IS:      29

 USING ROOT ACTIVITY FROM PREVIOUS STRESS PERIOD. CURRENT PERIOD IS:      29

 PROCESSING AG STRESS PERIOD DATA

 READING AG STRESS PERIOD DATA

 READING IRRIGATION SEGMENT

 READING IRRIGATION WELL

 READING SUPPLEMENTAL WELL

 END PROCESSING AG STRESS PERIOD DATA OPTIONS
 
 SOLVING FOR HEAD 
                                                   Max.-Head-Change                         Max.-Flux-Residual
  Residual-Control   Outer-Iter.   Inner-Iter.     Column Row Layer    Maximum-Head-Change  Column Row Layer    Maximum-Flux-Residual          L2-NORM 
          0                 1           2             4    7     1       0.8942668341E-02       4    7    1         0.4679511697E+00      0.1284918983E+01
          0                 2           2             4    7     1      -0.8695368687E-03       4    7    1        -0.4679520831E-01      0.1255259057E+00
          0                 3           1             4    7     1       0.5922312791E-04       4    7    1         0.3275665094E-02      0.8754357678E-02

    ------------------------------------------------
       NWT REQUIRED            3 OUTER ITERATIONS 
       AND A TOTAL OF          5 INNER ITERATIONS.
    ------------------------------------------------

 NO OUTPUT CONTROL FOR STRESS PERIOD   29   TIME STEP    1
 
 SOLVING FOR HEAD 
                                                   Max.-Head-Change                         Max.-Flux-Residual
  Residual-Control   Outer-Iter.   Inner-Iter.     Column Row Layer    Maximum-Head-Change  Column Row Layer    Maximum-Flux-Residual          L2-NORM 
          0                 1           2             4    7     1       0.8879998289E-02       4    7    1         0.4646631925E+00      0.1365441882E+01
          0                 2           2             4    7     1      -0.8634432455E-03       4    7    1        -0.4646640911E-01      0.1275901081E+00
          0                 3           1             4    7     1       0.5880809530E-04       4    7    1         0.3252649148E-02      0.8981959928E-02

    ------------------------------------------------
       NWT REQUIRED            3 OUTER ITERATIONS 
       AND A TOTAL OF          5 INNER ITERATIONS.
    ------------------------------------------------

 NO OUTPUT CONTROL FOR STRESS PERIOD   29   TIME STEP    2
 
 SOLVING FOR HEAD 
                                                   Max.-Head-Change                         Max.-Flux-Residual
  Residual-Control   Outer-Iter.   Inner-Iter.     Column Row Layer    Maximum-Head-Change  Column Row Layer    Maximum-Flux-Residual          L2-NORM 
          0                 1           2             4    7     1       0.8817891060E-02       4    7    1         0.4614063606E+00      0.1408840972E+01
          0                 2           2             4    7     1      -0.8574044572E-03       4    7    1        -0.4614072448E-01      0.1333812025E+00
          0                 3           1             4    7     1       0.5839679454E-04       4    7    1         0.3229851240E-02      0.9254393918E-02

    ------------------------------------------------
       NWT REQUIRED            3 OUTER ITERATIONS 
       AND A TOTAL OF          5 INNER ITERATIONS.
    ------------------------------------------------

 NO OUTPUT CONTROL FOR STRESS PERIOD   29   TIME STEP    3
 
 SOLVING FOR HEAD 
                                                   Max.-Head-Change                         Max.-Flux-Residual
  Residual-Control   Outer-Iter.   Inner-Iter.     Column Row Layer    Maximum-Head-Change  Column Row Layer    Maximum-Flux-Residual          L2-NORM 
          0                 1           2             4    7     1       0.8756474336E-02       4    7    1         0.4581860330E+00      0.1385311031E+01
          0                 2           2             4    7     1      -0.8514327832E-03       4    7    1        -0.4581869032E-01      0.1351842191E+00
          0                 3           1             4    7     1       0.5799006537E-04       4    7    1         0.3207308861E-02      0.9366687220E-02

    ------------------------------------------------
       NWT REQUIRED            3 OUTER ITERATIONS 
       AND A TOTAL OF          5 INNER ITERATIONS.
    ------------------------------------------------

 NO OUTPUT CONTROL FOR STRESS PERIOD   29   TIME STEP    4
 
 SOLVING FOR HEAD 
                                                   Max.-Head-Change                         Max.-Flux-Residual
  Residual-Control   Outer-Iter.   Inner-Iter.     Column Row Layer    Maximum-Head-Change  Column Row Layer    Maximum-Flux-Residual          L2-NORM 
          0                 1           2             4    7     1       0.8695476586E-02       4    7    1         0.4549868536E+00      0.1359661923E+01
          0                 2           2             4    7     1      -0.8455018129E-03       4    7    1        -0.4549877099E-01      0.1326987585E+00
          0                 3           1             4    7     1       0.5758610978E-04       4    7    1         0.3184914513E-02      0.9201311813E-02

    ------------------------------------------------
       NWT REQUIRED            3 OUTER ITERATIONS 
       AND A TOTAL OF          5 INNER ITERATIONS.
    ------------------------------------------------

 NO OUTPUT CONTROL FOR STRESS PERIOD   29   TIME STEP    5
 
 SOLVING FOR HEAD 
                                                   Max.-Head-Change                         Max.-Flux-Residual
  Residual-Control   Outer-Iter.   Inner-Iter.     Column Row Layer    Maximum-Head-Change  Column Row Layer    Maximum-Flux-Residual          L2-NORM 
          0                 1           2             4    7     1       0.8635166911E-02       4    7    1         0.4518240569E+00      0.1336771984E+01
          0                 2           2             4    7     1      -0.8396377170E-03       4    7    1        -0.4518248996E-01      0.1304823530E+00
          0                 3           1             4    7     1       0.5718671049E-04       4    7    1         0.3162774843E-02      0.9052119672E-02

    ------------------------------------------------
       NWT REQUIRED            3 OUTER ITERATIONS 
       AND A TOTAL OF          5 INNER ITERATIONS.
    ------------------------------------------------

 NO OUTPUT CONTROL FOR STRESS PERIOD   29   TIME STEP    6
 
 SOLVING FOR HEAD 
                                                   Max.-Head-Change                         Max.-Flux-Residual
  Residual-Control   Outer-Iter.   Inner-Iter.     Column Row Layer    Maximum-Head-Change  Column Row Layer    Maximum-Flux-Residual          L2-NORM 
          0                 1           2             4    7     1       0.8575271262E-02       4    7    1         0.4486822821E+00      0.1316253740E+01
          0                 2           2             4    7     1      -0.8338138480E-03       4    7    1        -0.4486831111E-01      0.1284959055E+00
          0                 3           1             4    7     1       0.5679005106E-04       4    7    1         0.3140782316E-02      0.8919741204E-02

    ------------------------------------------------
       NWT REQUIRED            3 OUTER ITERATIONS 
       AND A TOTAL OF          5 INNER ITERATIONS.
    ------------------------------------------------

 NO OUTPUT CONTROL FOR STRESS PERIOD   29   TIME STEP    7
 
 SOLVING FOR HEAD 
                                                   Max.-Head-Change                         Max.-Flux-Residual
  Residual-Control   Outer-Iter.   Inner-Iter.     Column Row Layer    Maximum-Head-Change  Column Row Layer    Maximum-Flux-Residual          L2-NORM 
          0                 1           2             4    7     1       0.8516058443E-02       4    7    1         0.4455766336E+00      0.1297773472E+01
          0                 2           2             4    7     1      -0.8280563569E-03       4    7    1        -0.4455774495E-01      0.1267077938E+00
          0                 3           1             4    7     1       0.5639791363E-04       4    7    1         0.3119042705E-02      0.8800583447E-02

    ------------------------------------------------
       NWT REQUIRED            3 OUTER ITERATIONS 
       AND A TOTAL OF          5 INNER ITERATIONS.
    ------------------------------------------------

 NO OUTPUT CONTROL FOR STRESS PERIOD   29   TIME STEP    8
 
 SOLVING FOR HEAD 
                                                   Max.-Head-Change                         Max.-Flux-Residual
  Residual-Control   Outer-Iter.   Inner-Iter.     Column Row Layer    Maximum-Head-Change  Column Row Layer    Maximum-Flux-Residual          L2-NORM 
          0                 1           2             4    7     1       0.8457387420E-02       4    7    1         0.4424990627E+00      0.1281065896E+01
          0                 2           2             4    7     1      -0.8223515167E-03       4    7    1        -0.4424998655E-01      0.1250934285E+00
          0                 3           1             4    7     1       0.5600936309E-04       4    7    1         0.3097499620E-02      0.8691869472E-02

    ------------------------------------------------
       NWT REQUIRED            3 OUTER ITERATIONS 
       AND A TOTAL OF          5 INNER ITERATIONS.
    ------------------------------------------------

 NO OUTPUT CONTROL FOR STRESS PERIOD   29   TIME STEP    9
 
 SOLVING FOR HEAD 
                                                   Max.-Head-Change                         Max.-Flux-Residual
  Residual-Control   Outer-Iter.   Inner-Iter.     Column Row Layer    Maximum-Head-Change  Column Row Layer    Maximum-Flux-Residual          L2-NORM 
          0                 1           2             4    7     1       0.8399256204E-02       4    7    1         0.4394495858E+00      0.1265863090E+01
          0                 2           2             4    7     1      -0.8166991456E-03       4    7    1        -0.4394503760E-01      0.1236240702E+00
          0                 3           1             4    7     1       0.5562438680E-04       4    7    1         0.3076153196E-02      0.8593055613E-02

    ------------------------------------------------
       NWT REQUIRED            3 OUTER ITERATIONS 
       AND A TOTAL OF          5 INNER ITERATIONS.
    ------------------------------------------------

 NO OUTPUT CONTROL FOR STRESS PERIOD   29   TIME STEP   10
 
 SOLVING FOR HEAD 
                                                   Max.-Head-Change                         Max.-Flux-Residual
  Residual-Control   Outer-Iter.   Inner-Iter.     Column Row Layer    Maximum-Head-Change  Column Row Layer    Maximum-Flux-Residual          L2-NORM 
          0                 1           2             4    7     1       0.8341661593E-02       4    7    1         0.4364280993E+00      0.1251966121E+01
          0                 2           2             4    7     1      -0.8110989328E-03       4    7    1        -0.4364288769E-01      0.1222817424E+00
          0                 3           1             4    7     1       0.5524296297E-04       4    7    1         0.3055002687E-02      0.8502957280E-02

    ------------------------------------------------
       NWT REQUIRED            3 OUTER ITERATIONS 
       AND A TOTAL OF          5 INNER ITERATIONS.
    ------------------------------------------------

 NO OUTPUT CONTROL FOR STRESS PERIOD   29   TIME STEP   11
 
 SOLVING FOR HEAD 
                                                   Max.-Head-Change                         Max.-Flux-Residual
  Residual-Control   Outer-Iter.   Inner-Iter.     Column Row Layer    Maximum-Head-Change  Column Row Layer    Maximum-Flux-Residual          L2-NORM 
          0                 1           2             4    7     1       0.8284599311E-02       4    7    1         0.4334344371E+00      0.1239186170E+01
          0                 2           2             4    7     1      -0.8055504567E-03       4    7    1        -0.4334352022E-01      0.1210476429E+00
          0                 3           1             4    7     1       0.5486506451E-04       4    7    1         0.3034046968E-02      0.8419845097E-02

    ------------------------------------------------
       NWT REQUIRED            3 OUTER ITERATIONS 
       AND A TOTAL OF          5 INNER ITERATIONS.
    ------------------------------------------------

 NO OUTPUT CONTROL FOR STRESS PERIOD   29   TIME STEP   12
 
 SOLVING FOR HEAD 
                                                   Max.-Head-Change                         Max.-Flux-Residual
  Residual-Control   Outer-Iter.   Inner-Iter.     Column Row Layer    Maximum-Head-Change  Column Row Layer    Maximum-Flux-Residual          L2-NORM 
          0                 1           2             4    7     1       0.8228201507E-02       4    7    1         0.4304757072E+00      0.1227378550E+01
          0                 2           2             4    7     1      -0.8000665818E-03       4    7    1        -0.4304764601E-01      0.1199066697E+00
          0                 3           1             4    7     1       0.5449156580E-04       4    7    1         0.3013335790E-02      0.8342997378E-02

    ------------------------------------------------
       NWT REQUIRED            3 OUTER ITERATIONS 
       AND A TOTAL OF          5 INNER ITERATIONS.
    ------------------------------------------------

 NO OUTPUT CONTROL FOR STRESS PERIOD   29   TIME STEP   13
 
 SOLVING FOR HEAD 
                                                   Max.-Head-Change                         Max.-Flux-Residual
  Residual-Control   Outer-Iter.   Inner-Iter.     Column Row Layer    Maximum-Head-Change  Column Row Layer    Maximum-Flux-Residual          L2-NORM 
          0                 1           2             4    7     1       0.8172186087E-02       4    7    1         0.4275367727E+00      0.1216393340E+01
          0                 2           2             4    7     1      -0.7946198608E-03       4    7    1        -0.4275375136E-01      0.1188478486E+00
          0                 3           1             4    7     1       0.5412059867E-04       4    7    1         0.2992763176E-02      0.8272507732E-02

    ------------------------------------------------
       NWT REQUIRED            3 OUTER ITERATIONS 
       AND A TOTAL OF          5 INNER ITERATIONS.
    ------------------------------------------------

 NO OUTPUT CONTROL FOR STRESS PERIOD   29   TIME STEP   14
 
 SOLVING FOR HEAD 
                                                   Max.-Head-Change                         Max.-Flux-Residual
  Residual-Control   Outer-Iter.   Inner-Iter.     Column Row Layer    Maximum-Head-Change  Column Row Layer    Maximum-Flux-Residual          L2-NORM 
          0                 1           2             4    7     1       0.8116826320E-02       4    7    1         0.4246323253E+00      0.1206138384E+01
          0                 2           2             4    7     1      -0.7892368857E-03       4    7    1        -0.4246330546E-01      0.1178565866E+00
          0                 3           1             4    7     1       0.5375397320E-04       4    7    1         0.2972431961E-02      0.8204130627E-02

    ------------------------------------------------
       NWT REQUIRED            3 OUTER ITERATIONS 
       AND A TOTAL OF          5 INNER ITERATIONS.
    ------------------------------------------------

 NO OUTPUT CONTROL FOR STRESS PERIOD   29   TIME STEP   15
 
 SOLVING FOR HEAD 
                                                   Max.-Head-Change                         Max.-Flux-Residual
  Residual-Control   Outer-Iter.   Inner-Iter.     Column Row Layer    Maximum-Head-Change  Column Row Layer    Maximum-Flux-Residual          L2-NORM 
          0                 1           2             4    7     1       0.8061978434E-02       4    7    1         0.4217545449E+00      0.1196506015E+01
          0                 2           2             4    7     1      -0.7839036723E-03       4    7    1        -0.4217552627E-01      0.1169264070E+00
          0                 3           1             4    7     1       0.5339073735E-04       4    7    1         0.2952287409E-02      0.8140830760E-02

    ------------------------------------------------
       NWT REQUIRED            3 OUTER ITERATIONS 
       AND A TOTAL OF          5 INNER ITERATIONS.
    ------------------------------------------------

 NO OUTPUT CONTROL FOR STRESS PERIOD   29   TIME STEP   16
 
 SOLVING FOR HEAD 
                                                   Max.-Head-Change                         Max.-Flux-Residual
  Residual-Control   Outer-Iter.   Inner-Iter.     Column Row Layer    Maximum-Head-Change  Column Row Layer    Maximum-Flux-Residual          L2-NORM 
          0                 1           2             4    7     1       0.8007638124E-02       4    7    1         0.4189033064E+00      0.1187414267E+01
          0                 2           2             4    7     1      -0.7786197952E-03       4    7    1        -0.4189040129E-01      0.1160485240E+00
          0                 3           1             4    7     1       0.5303086227E-04       4    7    1         0.2932328673E-02      0.8081310295E-02

    ------------------------------------------------
       NWT REQUIRED            3 OUTER ITERATIONS 
       AND A TOTAL OF          5 INNER ITERATIONS.
    ------------------------------------------------

 NO OUTPUT CONTROL FOR STRESS PERIOD   29   TIME STEP   17
 
 SOLVING FOR HEAD 
                                                   Max.-Head-Change                         Max.-Flux-Residual
  Residual-Control   Outer-Iter.   Inner-Iter.     Column Row Layer    Maximum-Head-Change  Column Row Layer    Maximum-Flux-Residual          L2-NORM 
          0                 1           2             4    7     1       0.7953939651E-02       4    7    1         0.4160857170E+00      0.1178794949E+01
          0                 2           2             4    7     1      -0.7733983233E-03       4    7    1        -0.4160864122E-01      0.1152157649E+00
          0                 3           1             4    7     1       0.5267523796E-04       4    7    1         0.2912605475E-02      0.8024326893E-02

    ------------------------------------------------
       NWT REQUIRED            3 OUTER ITERATIONS 
       AND A TOTAL OF          5 INNER ITERATIONS.
    ------------------------------------------------

 NO OUTPUT CONTROL FOR STRESS PERIOD   29   TIME STEP   18
 
 SOLVING FOR HEAD 
                                                   Max.-Head-Change                         Max.-Flux-Residual
  Residual-Control   Outer-Iter.   Inner-Iter.     Column Row Layer    Maximum-Head-Change  Column Row Layer    Maximum-Flux-Residual          L2-NORM 
          0                 1           2             4    7     1       0.7900597418E-02       4    7    1         0.4132867475E+00      0.1170582181E+01
          0                 2           2             4    7     1      -0.7682114775E-03       4    7    1        -0.4132874318E-01      0.1144227929E+00
          0                 3           1             4    7     1       0.5232197198E-04       4    7    1         0.2893012604E-02      0.7970432591E-02

    ------------------------------------------------
       NWT REQUIRED            3 OUTER ITERATIONS 
       AND A TOTAL OF          5 INNER ITERATIONS.
    ------------------------------------------------

 NO OUTPUT CONTROL FOR STRESS PERIOD   29   TIME STEP   19
 
 SOLVING FOR HEAD 
                                                   Max.-Head-Change                         Max.-Flux-Residual
  Residual-Control   Outer-Iter.   Inner-Iter.     Column Row Layer    Maximum-Head-Change  Column Row Layer    Maximum-Flux-Residual          L2-NORM 
          0                 1           2             4    7     1       0.7847886107E-02       4    7    1         0.4105209100E+00      0.1162733071E+01
          0                 2           2             4    7     1      -0.7630859694E-03       4    7    1        -0.4105215835E-01      0.1136640955E+00
          0                 3           1             4    7     1       0.5197288399E-04       4    7    1         0.2873651670E-02      0.7918486291E-02

    ------------------------------------------------
       NWT REQUIRED            3 OUTER ITERATIONS 
       AND A TOTAL OF          5 INNER ITERATIONS.
    ------------------------------------------------

 NO OUTPUT CONTROL FOR STRESS PERIOD   29   TIME STEP   20
 
 SOLVING FOR HEAD 
                                                   Max.-Head-Change                         Max.-Flux-Residual
  Residual-Control   Outer-Iter.   Inner-Iter.     Column Row Layer    Maximum-Head-Change  Column Row Layer    Maximum-Flux-Residual          L2-NORM 
          0                 1           2             4    7     1       0.7795659141E-02       4    7    1         0.4077804567E+00      0.1155201351E+01
          0                 2           2             4    7     1      -0.7580075422E-03       4    7    1        -0.4077811197E-01      0.1129357807E+00
          0                 3           1             4    7     1       0.5162700281E-04       4    7    1         0.2854468410E-02      0.7868444985E-02

    ------------------------------------------------
       NWT REQUIRED            3 OUTER ITERATIONS 
       AND A TOTAL OF          5 INNER ITERATIONS.
    ------------------------------------------------

 NO OUTPUT CONTROL FOR STRESS PERIOD   29   TIME STEP   21
 
 SOLVING FOR HEAD 
                                                   Max.-Head-Change                         Max.-Flux-Residual
  Residual-Control   Outer-Iter.   Inner-Iter.     Column Row Layer    Maximum-Head-Change  Column Row Layer    Maximum-Flux-Residual          L2-NORM 
          0                 1           2             4    7     1       0.7743916016E-02       4    7    1         0.4050651177E+00      0.1147949293E+01
          0                 2           2             4    7     1      -0.7529761570E-03       4    7    1        -0.4050657702E-01      0.1122348271E+00
          0                 3           1             4    7     1       0.5128432654E-04       4    7    1         0.2835460979E-02      0.7820203751E-02

    ------------------------------------------------
       NWT REQUIRED            3 OUTER ITERATIONS 
       AND A TOTAL OF          5 INNER ITERATIONS.
    ------------------------------------------------

 NO OUTPUT CONTROL FOR STRESS PERIOD   29   TIME STEP   22
 
 SOLVING FOR HEAD 
                                                   Max.-Head-Change                         Max.-Flux-Residual
  Residual-Control   Outer-Iter.   Inner-Iter.     Column Row Layer    Maximum-Head-Change  Column Row Layer    Maximum-Flux-Residual          L2-NORM 
          0                 1           2             4    7     1       0.7692652665E-02       4    7    1         0.4023748665E+00      0.1140947612E+01
          0                 2           2             4    7     1      -0.7479914186E-03       4    7    1        -0.4023755087E-01      0.1115575573E+00
          0                 3           1             4    7     1       0.5094482749E-04       4    7    1         0.2816629171E-02      0.7773780042E-02

    ------------------------------------------------
       NWT REQUIRED            3 OUTER ITERATIONS 
       AND A TOTAL OF          5 INNER ITERATIONS.
    ------------------------------------------------

 NO OUTPUT CONTROL FOR STRESS PERIOD   29   TIME STEP   23
 
 SOLVING FOR HEAD 
                                                   Max.-Head-Change                         Max.-Flux-Residual
  Residual-Control   Outer-Iter.   Inner-Iter.     Column Row Layer    Maximum-Head-Change  Column Row Layer    Maximum-Flux-Residual          L2-NORM 
          0                 1           2             4    7     1       0.7641995856E-02       4    7    1         0.3997168226E+00      0.1134156212E+01
          0                 2           2             4    7     1      -0.7430656499E-03       4    7    1        -0.3997174549E-01      0.1109008112E+00
          0                 3           1             4    7     1       0.5060934419E-04       4    7    1         0.2798022769E-02      0.7728624939E-02

    ------------------------------------------------
       NWT REQUIRED            3 OUTER ITERATIONS 
       AND A TOTAL OF          5 INNER ITERATIONS.
    ------------------------------------------------

 NO OUTPUT CONTROL FOR STRESS PERIOD   29   TIME STEP   24
 
 SOLVING FOR HEAD 
                                                   Max.-Head-Change                         Max.-Flux-Residual
  Residual-Control   Outer-Iter.   Inner-Iter.     Column Row Layer    Maximum-Head-Change  Column Row Layer    Maximum-Flux-Residual          L2-NORM 
          0                 1           2             4    7     1       0.7591803495E-02       4    7    1         0.3970828981E+00      0.1127565350E+01
          0                 2           2             4    7     1      -0.7381850395E-03       4    7    1        -0.3970835205E-01      0.1102629420E+00
          0                 3           1             4    7     1       0.5027693670E-04       4    7    1         0.2779585232E-02      0.7684438798E-02

    ------------------------------------------------
       NWT REQUIRED            3 OUTER ITERATIONS 
       AND A TOTAL OF          5 INNER ITERATIONS.
    ------------------------------------------------

 NO OUTPUT CONTROL FOR STRESS PERIOD   29   TIME STEP   25
 
 SOLVING FOR HEAD 
                                                   Max.-Head-Change                         Max.-Flux-Residual
  Residual-Control   Outer-Iter.   Inner-Iter.     Column Row Layer    Maximum-Head-Change  Column Row Layer    Maximum-Flux-Residual          L2-NORM 
          0                 1           2             4    7     1       0.7542069006E-02       4    7    1         0.3944730557E+00      0.1121148420E+01
          0                 2           2             4    7     1      -0.7333489394E-03       4    7    1        -0.3944736685E-01      0.1096416701E+00
          0                 3           1             4    7     1       0.4994756158E-04       4    7    1         0.2761316266E-02      0.7641647738E-02

    ------------------------------------------------
       NWT REQUIRED            3 OUTER ITERATIONS 
       AND A TOTAL OF          5 INNER ITERATIONS.
    ------------------------------------------------

 NO OUTPUT CONTROL FOR STRESS PERIOD   29   TIME STEP   26
 
 SOLVING FOR HEAD 
                                                   Max.-Head-Change                         Max.-Flux-Residual
  Residual-Control   Outer-Iter.   Inner-Iter.     Column Row Layer    Maximum-Head-Change  Column Row Layer    Maximum-Flux-Residual          L2-NORM 
          0                 1           2             4    7     1       0.7492791692E-02       4    7    1         0.3918869547E+00      0.1114898536E+01
          0                 2           2             4    7     1      -0.7285572828E-03       4    7    1        -0.3918875578E-01      0.1090364282E+00
          0                 3           1             4    7     1       0.4962121340E-04       4    7    1         0.2743213494E-02      0.7599844254E-02

    ------------------------------------------------
       NWT REQUIRED            3 OUTER ITERATIONS 
       AND A TOTAL OF          5 INNER ITERATIONS.
    ------------------------------------------------

 NO OUTPUT CONTROL FOR STRESS PERIOD   29   TIME STEP   27
 
 SOLVING FOR HEAD 
                                                   Max.-Head-Change                         Max.-Flux-Residual
  Residual-Control   Outer-Iter.   Inner-Iter.     Column Row Layer    Maximum-Head-Change  Column Row Layer    Maximum-Flux-Residual          L2-NORM 
          0                 1           2             4    7     1       0.7444100070E-02       4    7    1         0.3893318902E+00      0.1108788876E+01
          0                 2           2             4    7     1      -0.7238225809E-03       4    7    1        -0.3893324842E-01      0.1084447422E+00
          0                 3           1             4    7     1       0.4929874441E-04       4    7    1         0.2725327973E-02      0.7559126597E-02

    ------------------------------------------------
       NWT REQUIRED            3 OUTER ITERATIONS 
       AND A TOTAL OF          5 INNER ITERATIONS.
    ------------------------------------------------

 NO OUTPUT CONTROL FOR STRESS PERIOD   29   TIME STEP   28
 
 SOLVING FOR HEAD 
                                                   Max.-Head-Change                         Max.-Flux-Residual
  Residual-Control   Outer-Iter.   Inner-Iter.     Column Row Layer    Maximum-Head-Change  Column Row Layer    Maximum-Flux-Residual          L2-NORM 
          0                 1           2             4    7     1       0.7395850028E-02       4    7    1         0.3867998629E+00      0.1102807457E+01
          0                 2           2             4    7     1      -0.7191308154E-03       4    7    1        -0.3868004476E-01      0.1078652912E+00
          0                 3           1             4    7     1       0.4897919987E-04       4    7    1         0.2707603731E-02      0.7518886718E-02

    ------------------------------------------------
       NWT REQUIRED            3 OUTER ITERATIONS 
       AND A TOTAL OF          5 INNER ITERATIONS.
    ------------------------------------------------

 NO OUTPUT CONTROL FOR STRESS PERIOD   29   TIME STEP   29
 
 SOLVING FOR HEAD 
                                                   Max.-Head-Change                         Max.-Flux-Residual
  Residual-Control   Outer-Iter.   Inner-Iter.     Column Row Layer    Maximum-Head-Change  Column Row Layer    Maximum-Flux-Residual          L2-NORM 
          0                 1           2             4    7     1       0.7348118245E-02       4    7    1         0.3842907317E+00      0.1118866865E+01
          0                 2           2             4    7     1      -0.7144891353E-03       4    7    1        -0.3842913070E-01      0.1092804609E+00
          0                 3           1             4    7     1       0.4866307633E-04       4    7    1         0.2690039759E-02      0.7578072222E-02

    ------------------------------------------------
       NWT REQUIRED            3 OUTER ITERATIONS 
       AND A TOTAL OF          5 INNER ITERATIONS.
    ------------------------------------------------

 NO OUTPUT CONTROL FOR STRESS PERIOD   29   TIME STEP   30



 STREAM LISTING     PERIOD     29   STEP       30

 LAYER ROW COL. STREAM  RCH.  FLOW INTO     FLOW TO   FLOW OUT OF   OVRLND.     DIRECT     STREAM       STREAM     STREAM     STREAM   STREAMBED  STREAMBED
                SEG.NO.  NO.  STRM. RCH.    AQUIFER    STRM. RCH.    RUNOFF     PRECIP       ET          HEAD       DEPTH      WIDTH   CONDCTNC.   GRADIENT

   1    1    1     1     1    1.8581E+01  2.1154E-01   1.8369E+01  0.000E+00  0.000E+00  0.000E+00  1.09412E+03  1.075E+00  1.154E+01  5.191E-02  1.358E+00
   1    2    2     1     2    1.8369E+01  3.2630E-01   1.8043E+01  0.000E+00  0.000E+00  0.000E+00  1.08913E+03  1.070E+00  1.145E+01  8.016E-02  1.357E+00
   1    3    3     1     3    1.8043E+01  2.7702E-01   1.7766E+01  0.000E+00  0.000E+00  0.000E+00  1.08348E+03  1.065E+00  1.136E+01  6.814E-02  1.355E+00
   1    3    4     1     4    1.7766E+01  2.5406E-01   1.7512E+01  0.000E+00  0.000E+00  0.000E+00  1.07847E+03  1.061E+00  1.127E+01  6.256E-02  1.354E+00
   1    4    5     2     1    1.5512E+01  3.0432E-01   1.5207E+01  0.000E+00  0.000E+00  0.000E+00  1.07284E+03  9.015E-01  1.200E+01  7.800E-02  1.301E+00
   1    5    6     2     2    1.5207E+01  2.3352E-01   1.4974E+01  0.000E+00  0.000E+00  0.000E+00  1.06740E+03  8.920E-01  1.200E+01  6.000E-02  1.297E+00
   1    6    6     2     3    1.4974E+01  2.3302E-01   1.4741E+01  0.000E+00  0.000E+00  0.000E+00  1.06268E+03  8.837E-01  1.200E+01  6.000E-02  1.295E+00
   1    7    6     2     4    1.4741E+01  2.3252E-01   1.4508E+01  0.000E+00  0.000E+00  0.000E+00  1.05795E+03  8.754E-01  1.200E+01  6.000E-02  1.292E+00
   1    8    6     2     5    1.4508E+01  2.3202E-01   1.4276E+01  0.000E+00  0.000E+00  0.000E+00  1.05323E+03  8.670E-01  1.200E+01  6.000E-02  1.289E+00
   1    3    5     3     1    2.0000E+00  2.8252E-01   1.7175E+00  0.000E+00  0.000E+00  0.000E+00  1.07555E+03  1.909E+00  9.636E+00  7.227E-02  1.955E+00
   1    3    6     3     2    1.7175E+00  2.4905E-01   1.4684E+00  0.000E+00  0.000E+00  0.000E+00  1.07264E+03  1.727E+00  8.909E+00  6.682E-02  1.864E+00
   1    3    7     3     3    1.4684E+00  1.9718E-01   1.2712E+00  0.000E+00  0.000E+00  0.000E+00  1.06987E+03  1.555E+00  8.218E+00  5.547E-02  1.777E+00
   1    4    8     3     4    1.2712E+00  2.2567E-01   1.0456E+00  0.000E+00  0.000E+00  0.000E+00  1.06682E+03  1.364E+00  7.455E+00  6.709E-02  1.682E+00
   1    5    8     3     5    1.0456E+00  1.5790E-01   8.8768E-01  0.000E+00  0.000E+00  0.000E+00  1.06362E+03  1.164E+00  6.655E+00  4.991E-02  1.582E+00
   1    6    8     3     6    8.8768E-01  5.5980E-02   8.3170E-01  0.000E+00  0.000E+00  0.000E+00  1.06158E+03  1.036E+00  6.145E+00  1.844E-02  1.518E+00
   1    5   10     4     1    1.0000E+01  9.0919E-02   9.9091E+00  0.000E+00  0.000E+00  0.000E+00  1.07836E+03  6.368E-01  1.000E+01  2.500E-02  1.212E+00
   1    5    9     4     2    9.9091E+00  1.8158E-01   9.7275E+00  0.000E+00  0.000E+00  0.000E+00  1.07154E+03  6.315E-01  1.000E+01  5.000E-02  1.211E+00
   1    6    8     4     3    9.7275E+00  1.2689E-01   9.6006E+00  0.000E+00  0.000E+00  0.000E+00  1.06381E+03  6.256E-01  1.000E+01  3.500E-02  1.209E+00
   1    6    8     5     1    1.0432E+01  2.2686E-01   1.0205E+01  0.000E+00  0.000E+00  0.000E+00  1.05868E+03  6.790E-01  1.542E+01  6.166E-02  1.226E+00
   1    7    7     5     2    1.0205E+01  2.7894E-01   9.9265E+00  0.000E+00  0.000E+00  0.000E+00  1.05417E+03  6.732E-01  1.519E+01  7.594E-02  1.224E+00
   1    8    7     5     3    9.9265E+00  1.9221E-01   9.7343E+00  0.000E+00  0.000E+00  0.000E+00  1.04992E+03  6.676E-01  1.497E+01  5.241E-02  1.223E+00
   1    8    6     5     4    9.7343E+00  1.3577E-01   9.5985E+00  0.000E+00  0.000E+00  0.000E+00  1.04691E+03  6.637E-01  1.482E+01  3.706E-02  1.221E+00
   1    9    6     6     1    2.3875E+01  2.5104E-01   2.3624E+01  0.000E+00  0.000E+00  0.000E+00  1.04391E+03  1.184E+00  1.200E+01  6.000E-02  1.395E+00
   1   10    7     6     2    2.3624E+01  2.5059E-01   2.3373E+01  0.000E+00  0.000E+00  0.000E+00  1.03936E+03  1.177E+00  1.200E+01  6.000E-02  1.392E+00
   1   11    7     6     3    2.3373E+01  2.5014E-01   2.3123E+01  0.000E+00  0.000E+00  0.000E+00  1.03481E+03  1.169E+00  1.200E+01  6.000E-02  1.390E+00
   1   12    7     6     4    2.3123E+01  2.4969E-01   2.2873E+01  0.000E+00  0.000E+00  0.000E+00  1.03025E+03  1.161E+00  1.200E+01  6.000E-02  1.387E+00
   1   13    7     6     5    2.2873E+01  1.0434E-02   2.2863E+01  0.000E+00  0.000E+00  0.000E+00  1.02707E+03  1.157E+00  1.200E+01  2.400E-02  1.449E-01
   1   14    9     7     1    1.5000E+02  1.3814E+00   1.4862E+02  0.000E+00  0.000E+00  0.000E+00  1.03987E+03  2.288E+00  5.529E+01  5.593E-01  8.233E-01
   1   13    8     7     2    1.4862E+02  1.9762E+00   1.4664E+02  0.000E+00  0.000E+00  0.000E+00  1.03478E+03  2.279E+00  5.525E+01  6.147E-01  1.072E+00
   1   13    7     7     3    1.4664E+02  1.7066E+00   1.4494E+02  0.000E+00  0.000E+00  0.000E+00  1.02969E+03  2.269E+00  5.521E+01  5.584E-01  1.019E+00
   1   13    6     8     1    1.6780E+02  1.1378E+00   1.6666E+02  0.000E+00  0.000E+00  0.000E+00  1.02481E+03  2.934E+00  4.254E+01  4.335E-01  8.748E-01
   1   13    5     8     2    1.6666E+02  3.7229E-01   1.6629E+02  0.000E+00  0.000E+00  0.000E+00  1.01855E+03  2.929E+00  4.247E+01  4.328E-01  2.867E-01
   1   13    4     8     3    1.6629E+02 -1.6926E+00   1.6798E+02  0.000E+00  0.000E+00  0.000E+00  1.01231E+03  2.933E+00  4.253E+01  4.334E+00 -1.302E-01
   1   13    3     8     4    1.6798E+02 -3.2397E+00   1.7122E+02  0.000E+00  0.000E+00  0.000E+00  1.00607E+03  2.950E+00  4.277E+01  4.358E+00 -2.478E-01
   1   13    2     8     5    1.7122E+02 -2.3935E+00   1.7361E+02  0.000E+00  0.000E+00  0.000E+00  9.99843E+02  2.968E+00  4.303E+01  4.385E+00 -1.819E-01
   1   13    1     8     6    1.7361E+02 -1.9204E+00   1.7553E+02  0.000E+00  0.000E+00  0.000E+00  9.94857E+02  2.982E+00  4.324E+01  2.643E+00 -2.422E-01
   1    8    6     9     1    0.0000E+00  0.0000E+00   0.0000E+00  0.000E+00  0.000E+00  0.000E+00  1.07875E+03  0.000E+00  4.000E+00  0.000E+00  1.000E+00
   1    8    5     9     2    0.0000E+00  0.0000E+00   0.0000E+00  0.000E+00  0.000E+00  0.000E+00  1.07825E+03  0.000E+00  4.000E+00  0.000E+00  1.000E+00





UNSATURATED ZONE PACKAGE VOLUMETRIC BUDGET FOR  TIME STEP    30 STRESS PERIOD   29
  ------------------------------------------------------------------------------



     CUMULATIVE VOLUMES      L**3       RATES FOR THIS TIME STEP      L**3/T
     ------------------                 ------------------------

           IN:                                      IN:
           ---                                      ---
        INFILTRATION =  1290900745.9114          INFILTRATION =           4.4075

          OUT:                                     OUT:
          ----                                     ----
              UZF ET =  1030025777.7458                UZF ET =           4.4075
        UZF RECHARGE =     4823671.5144          UZF RECHARGE =           0.0370

            IN - OUT =   256051296.6511              IN - OUT =      -3.6983E-02

          STORAGE:                                 STORAGE:
          --------                                 --------
      STORAGE CHANGE =   256051281.3254        STORAGE CHANGE =      -3.6983E-02

 PERCENT DISCREPANCY IS DIFFERENCE BETWEEN IN-OUT MINUS CHANGE IN STORAGE
 DIVIDED BY THE AVERAGE OF IN AND OUT TIMES 100

 PERCENT DISCREPANCY =           0.00     PERCENT DISCREPANCY =           0.00






1
  VOLUMETRIC BUDGET FOR AGRICULTURAL FIELDS AT  END OF TIME STEP   30, STRESS PERIOD  29
  ------------------------------------------------------------------------------

     CUMULATIVE VOLUMES      L**3       RATES FOR THIS TIME STEP      L**3/T
     ------------------                 ------------------------

           IN:                                      IN:
           ---                                      ---
               AG WELLS  =   599544832.0000                 AG WELLS  =           0.0000
      DIVERSION SEGMENTS =   366911456.0000        DIVERSION SEGMENTS =           0.0000
           GW IRRIGATION =           0.0000             GW IRRIGATION =           0.0000
           SW IRRIGATION =           0.0000             SW IRRIGATION =           0.0000
        SYSTEM LOSSES GW =           0.0000          SYSTEM LOSSES GW =           0.0000
        SYSTEM LOSSES SW =           0.0000          SYSTEM LOSSES SW =           0.0000

                TOTAL IN =   966456320.0000                  TOTAL IN =           0.0000

          OUT:                                     OUT:
          ----                                     ----
               AG WELLS  =           0.0000                 AG WELLS  =           0.0000
      DIVERSION SEGMENTS =           0.0000        DIVERSION SEGMENTS =           0.0000
           GW IRRIGATION =   599544832.0000             GW IRRIGATION =           0.0000
           SW IRRIGATION =   366918816.0000             SW IRRIGATION =           0.0000
        SYSTEM LOSSES GW =           0.0000          SYSTEM LOSSES GW =           0.0000
        SYSTEM LOSSES SW =           0.0000          SYSTEM LOSSES SW =           0.0000

               TOTAL OUT =   966463616.0000                 TOTAL OUT =           0.0000

                IN - OUT =       -7296.0000                  IN - OUT =           0.0000

     PERCENT DISCREPANCY =          -0.00         PERCENT DISCREPANCY =           0.00



1
  VOLUMETRIC BUDGET FOR ENTIRE MODEL AT END OF TIME STEP   30, STRESS PERIOD  29
  ------------------------------------------------------------------------------

     CUMULATIVE VOLUMES      L**3       RATES FOR THIS TIME STEP      L**3/T
     ------------------                 ------------------------

           IN:                                      IN:
           ---                                      ---
             STORAGE     =   920860352.0000               STORAGE     =           2.3780
       CONSTANT HEAD     =           0.0000         CONSTANT HEAD     =           0.0000
     HEAD DEP BOUNDS     =    21247300.0000       HEAD DEP BOUNDS     =           0.2889
      STREAM LEAKAGE     =   867402688.0000        STREAM LEAKAGE     =          12.2921
        UZF RECHARGE     =     4823671.5000          UZF RECHARGE     =       3.6983E-02
               GW ET     =           0.0000                 GW ET     =           0.0000
     SURFACE LEAKAGE     =           0.0000       SURFACE LEAKAGE     =           0.0000
           AG WELLS      =           0.0000             AG WELLS      =           0.0000

                TOTAL IN =  1814334080.0000                  TOTAL IN =          14.9959

          OUT:                                     OUT:
          ----                                     ----
             STORAGE     =   448437440.0000               STORAGE     =           5.4623
       CONSTANT HEAD     =           0.0000         CONSTANT HEAD     =           0.0000
     HEAD DEP BOUNDS     =    21226126.0000       HEAD DEP BOUNDS     =           0.2882
      STREAM LEAKAGE     =   745134912.0000        STREAM LEAKAGE     =           9.2462
        UZF RECHARGE     =           0.0000          UZF RECHARGE     =           0.0000
               GW ET     =           0.0000                 GW ET     =           0.0000
     SURFACE LEAKAGE     =           0.0000       SURFACE LEAKAGE     =           0.0000
           AG WELLS      =   599544832.0000             AG WELLS      =           0.0000

               TOTAL OUT =  1814343296.0000                 TOTAL OUT =          14.9966

                IN - OUT =       -9216.0000                  IN - OUT =      -7.0477E-04

     PERCENT DISCREPANCY =          -0.00         PERCENT DISCREPANCY =          -0.00






         TIME SUMMARY AT END OF TIME STEP   30 IN STRESS PERIOD   29
                    SECONDS     MINUTES      HOURS       DAYS        YEARS
                    -----------------------------------------------------------
   TIME STEP LENGTH  87667.      1461.1      24.352      1.0147     2.77799E-03
 STRESS PERIOD TIME 2.63000E+06  43833.      730.56      30.440     8.33397E-02
         TOTAL TIME 7.37266E+07 1.22878E+06  20480.      853.32      2.3363    
1
1
                            STRESS PERIOD NO.   30, LENGTH =   2630000.    
                            -----------------------------------------------

                              NUMBER OF TIME STEPS =    30

                               MULTIPLIER FOR DELT =     1.000

                            INITIAL TIME STEP SIZE =   87666.66    

 REUSING NON-PARAMETER GHB CELLS FROM LAST STRESS PERIOD

      2 GHB CELLS

 REUSING STREAM SEGMENT DATA FROM LAST STRESS PERIOD



            AREAL INFILTRATION RATE
 READING ON UNIT   19 WITH FORMAT: (10F4.0)            

            1           2           3           4           5           6           7           8           9          10
 ........................................................................................................................
   1   1.2000E-09   0.000       0.000       0.000       0.000       0.000       0.000       0.000       0.000       0.000    
   2   2.1000E-09  2.0000E-09  8.0000E-10  8.5000E-09   0.000       0.000       0.000       0.000       0.000       0.000    
   3   5.0000E-10  1.1000E-09  8.8000E-09  5.5000E-09   0.000       0.000       0.000       0.000       0.000       0.000    
   4   8.5000E-09  1.1000E-09  1.1000E-09  1.1000E-09  2.0000E-09   0.000       0.000       0.000       0.000       0.000    
   5   8.5000E-09  1.1000E-09  1.1000E-09  1.1000E-09  1.1000E-09   0.000       0.000       0.000       0.000       0.000    
   6   8.5000E-09  5.2000E-09  2.1000E-09  1.1000E-09  1.5000E-09   0.000       0.000       0.000       0.000       0.000    
   7   8.5000E-09  5.2000E-09  2.1000E-09  1.2000E-09  2.0000E-09   0.000       0.000       0.000       0.000       0.000    
   8   5.0000E-10  5.2000E-09  2.1000E-09  1.2000E-09  5.0000E-09   0.000       0.000       0.000       0.000       0.000    
   9   5.0000E-10  5.2000E-09  2.1000E-09  1.2000E-09  5.0000E-09   0.000       0.000       0.000       0.000       0.000    
  10   5.0000E-10  5.2000E-09  2.1000E-09  1.2000E-09  5.8000E-09   0.000       0.000       0.000       0.000       0.000    
  11   1.0000E-10  1.1000E-09  1.1000E-09  1.2000E-09  5.0000E-09   0.000       0.000       0.000       0.000       0.000    
  12   1.1000E-09  1.1000E-09  1.1000E-09  1.1000E-09  2.0000E-09   0.000       0.000       0.000       0.000       0.000    
  13   1.1000E-09  2.2000E-09  2.2000E-09  2.1000E-09  1.0000E-09   0.000       0.000       0.000       0.000       0.000    
  14   2.0000E-10  5.5000E-09  5.5000E-09  5.2000E-09  1.0000E-09   0.000       0.000       0.000       0.000       0.000    
  15    0.000      8.8000E-09  8.8000E-09   0.000       0.000       0.000       0.000       0.000       0.000       0.000    

                  ET RATE =  5.000000E-08

 USING ET EXTINCTION DEPTH FROM PREVIOUS STRESS PERIOD. CURRENT PERIOD IS:      30

 USING EXTINCTION WATER CONTENT FROM PREVIOUS STRESS PERIOD. CURRENT PERIOD IS:      30

 USING AIR ENTRY PRESSURE FROM PREVIOUS STRESS PERIOD. CURRENT PERIOD IS:      30

 USING ROOT PRESSURE HEAD FROM PREVIOUS STRESS PERIOD. CURRENT PERIOD IS:      30

 USING ROOT ACTIVITY FROM PREVIOUS STRESS PERIOD. CURRENT PERIOD IS:      30

 PROCESSING AG STRESS PERIOD DATA

 READING AG STRESS PERIOD DATA

 READING IRRIGATION SEGMENT

 READING IRRIGATION WELL

 READING SUPPLEMENTAL WELL

 END PROCESSING AG STRESS PERIOD DATA OPTIONS
 
 SOLVING FOR HEAD 
                                                   Max.-Head-Change                         Max.-Flux-Residual
  Residual-Control   Outer-Iter.   Inner-Iter.     Column Row Layer    Maximum-Head-Change  Column Row Layer    Maximum-Flux-Residual          L2-NORM 
          0                 1           2             4   13     1       0.1016946820E-01       4   13    1         0.5852171337E+00      0.1482318513E+01
          0                 2           2             4    7     1      -0.2305516611E-01       4    7    1        -0.1238180953E+01      0.3022356229E+01
          0                 3           2             4    7     1       0.2330725064E-01       4    7    1         0.1286672210E+01      0.3148335831E+01
          0                 4           2             4    7     1      -0.9271315215E-03       4    7    1        -0.5262551864E-01      0.1218250144E+00
          0                 5           1             4   13     1      -0.5646696530E-04       4   13    1        -0.3356309580E-02      0.4032852630E-02

    ------------------------------------------------
       NWT REQUIRED            5 OUTER ITERATIONS 
       AND A TOTAL OF          9 INNER ITERATIONS.
    ------------------------------------------------

 NO OUTPUT CONTROL FOR STRESS PERIOD   30   TIME STEP    1
 
 SOLVING FOR HEAD 
                                                   Max.-Head-Change                         Max.-Flux-Residual
  Residual-Control   Outer-Iter.   Inner-Iter.     Column Row Layer    Maximum-Head-Change  Column Row Layer    Maximum-Flux-Residual          L2-NORM 
          0                 1           2             4   13     1       0.9680501514E-02       4   13    1         0.5568828215E+00      0.1457623724E+01
          0                 2           2             4   13     1       0.8578931503E-03       4   13    1         0.5025058960E-01      0.1405370436E+00
          0                 3           1             4   13     1       0.7594208585E-04       4   13    1         0.4372691935E-02      0.1015277283E-01

    ------------------------------------------------
       NWT REQUIRED            3 OUTER ITERATIONS 
       AND A TOTAL OF          5 INNER ITERATIONS.
    ------------------------------------------------

 NO OUTPUT CONTROL FOR STRESS PERIOD   30   TIME STEP    2
 
 SOLVING FOR HEAD 
                                                   Max.-Head-Change                         Max.-Flux-Residual
  Residual-Control   Outer-Iter.   Inner-Iter.     Column Row Layer    Maximum-Head-Change  Column Row Layer    Maximum-Flux-Residual          L2-NORM 
          0                 1           2             4   13     1       0.8362276535E-02       4   13    1         0.4805629673E+00      0.1401122163E+01
          0                 2           2             4    7     1      -0.1975883371E-01       4    7    1        -0.1061155124E+01      0.2585063704E+01
          0                 3           2             4    7     1       0.1988480084E-01       4    7    1         0.1097739570E+01      0.2684933754E+01
          0                 4           2             4    7     1      -0.7909554205E-03       4    7    1        -0.4489801280E-01      0.1032409587E+00
          0                 5           1             4   13     1      -0.3558278283E-04       4   13    1        -0.2125193525E-02      0.2737555988E-02

    ------------------------------------------------
       NWT REQUIRED            5 OUTER ITERATIONS 
       AND A TOTAL OF          9 INNER ITERATIONS.
    ------------------------------------------------

 NO OUTPUT CONTROL FOR STRESS PERIOD   30   TIME STEP    3
 
 SOLVING FOR HEAD 
                                                   Max.-Head-Change                         Max.-Flux-Residual
  Residual-Control   Outer-Iter.   Inner-Iter.     Column Row Layer    Maximum-Head-Change  Column Row Layer    Maximum-Flux-Residual          L2-NORM 
          0                 1           2             4   13     1       0.7988595799E-02       4   13    1         0.4589326948E+00      0.1381084755E+01
          0                 2           2             4    7     1      -0.7800936551E-03       2   13    1        -0.4207862055E-01      0.1370148948E+00
          0                 3           1             4    7     1       0.7767669438E-04       4    7    1         0.4291366694E-02      0.1156513636E-01

    ------------------------------------------------
       NWT REQUIRED            3 OUTER ITERATIONS 
       AND A TOTAL OF          5 INNER ITERATIONS.
    ------------------------------------------------

 NO OUTPUT CONTROL FOR STRESS PERIOD   30   TIME STEP    4
 
 SOLVING FOR HEAD 
                                                   Max.-Head-Change                         Max.-Flux-Residual
  Residual-Control   Outer-Iter.   Inner-Iter.     Column Row Layer    Maximum-Head-Change  Column Row Layer    Maximum-Flux-Residual          L2-NORM 
          0                 1           2             2   13     1       0.7151042086E-02       4   13    1         0.4061494422E+00      0.1337879283E+01
          0                 2           2             4    7     1      -0.1991926147E-01       4    7    1        -0.1069766779E+01      0.2605461537E+01
          0                 3           2             4    7     1       0.2006023141E-01       4    7    1         0.1107424101E+01      0.2708601097E+01
          0                 4           2             4    7     1      -0.7979372157E-03       4    7    1        -0.4529411776E-01      0.1045411472E+00
          0                 5           1             4   13     1      -0.3633618111E-04       4   13    1        -0.2148697318E-02      0.3041731702E-02

    ------------------------------------------------
       NWT REQUIRED            5 OUTER ITERATIONS 
       AND A TOTAL OF          9 INNER ITERATIONS.
    ------------------------------------------------

 NO OUTPUT CONTROL FOR STRESS PERIOD   30   TIME STEP    5
 
 SOLVING FOR HEAD 
                                                   Max.-Head-Change                         Max.-Flux-Residual
  Residual-Control   Outer-Iter.   Inner-Iter.     Column Row Layer    Maximum-Head-Change  Column Row Layer    Maximum-Flux-Residual          L2-NORM 
          0                 1           2             4    7     1       0.7076147554E-02       4   13    1         0.3939858263E+00      0.1322951769E+01
          0                 2           2             4    7     1      -0.2929915020E-02       4    7    1        -0.1573907749E+00      0.3741565790E+00
          0                 3           2             4    7     1       0.1871520870E-02       4    7    1         0.1033252529E+00      0.2469158770E+00
          0                 4           1             5    8     1       0.1902050442E-03       5    8    1         0.1111635423E-01      0.1404628685E-01
          0                 5           1             5    8     1       0.1046111137E-03       5    8    1         0.5943309357E-02      0.1429825154E-01
          0                 6           1             4   13     1      -0.5647863125E-04       4   13    1        -0.3335620492E-02      0.7182934057E-02

    ------------------------------------------------
       NWT REQUIRED            6 OUTER ITERATIONS 
       AND A TOTAL OF          9 INNER ITERATIONS.
    ------------------------------------------------

 NO OUTPUT CONTROL FOR STRESS PERIOD   30   TIME STEP    6
 
 SOLVING FOR HEAD 
                                                   Max.-Head-Change                         Max.-Flux-Residual
  Residual-Control   Outer-Iter.   Inner-Iter.     Column Row Layer    Maximum-Head-Change  Column Row Layer    Maximum-Flux-Residual          L2-NORM 
          0                 1           2             4    7     1       0.7034778191E-02       4    7    1         0.3677725355E+00      0.1290058233E+01
          0                 2           2             4    7     1      -0.1838490486E-01       4    7    1        -0.9873636234E+00      0.2403296015E+01
          0                 3           2             4    7     1       0.1847116753E-01       4    7    1         0.1019701458E+01      0.2492858828E+01
          0                 4           2             4    7     1      -0.7347103624E-03       4    7    1        -0.4170619450E-01      0.9613463152E-01
          0                 5           1             4   13     1      -0.3341123691E-04       4   13    1        -0.1976027038E-02      0.2733990901E-02

    ------------------------------------------------
       NWT REQUIRED            5 OUTER ITERATIONS 
       AND A TOTAL OF          9 INNER ITERATIONS.
    ------------------------------------------------

 NO OUTPUT CONTROL FOR STRESS PERIOD   30   TIME STEP    7
 
 SOLVING FOR HEAD 
                                                   Max.-Head-Change                         Max.-Flux-Residual
  Residual-Control   Outer-Iter.   Inner-Iter.     Column Row Layer    Maximum-Head-Change  Column Row Layer    Maximum-Flux-Residual          L2-NORM 
          0                 1           2             4    7     1       0.6992237182E-02       4    7    1         0.3655335507E+00      0.1277697101E+01
          0                 2           2             4    7     1      -0.7521870390E-02       4    7    1        -0.4039872214E+00      0.9709498858E+00
          0                 3           2             4    7     1       0.7167854967E-02       4    7    1         0.3957128759E+00      0.9577985858E+00
          0                 4           2             5    8     1       0.3163163599E-03       5    8    1         0.1895475252E-01      0.4174692918E-01
          0                 5           1             5    8     1       0.2679253101E-04       5    8    1         0.1555695595E-02      0.1857529651E-02

    ------------------------------------------------
       NWT REQUIRED            5 OUTER ITERATIONS 
       AND A TOTAL OF          9 INNER ITERATIONS.
    ------------------------------------------------

 NO OUTPUT CONTROL FOR STRESS PERIOD   30   TIME STEP    8
 
 SOLVING FOR HEAD 
                                                   Max.-Head-Change                         Max.-Flux-Residual
  Residual-Control   Outer-Iter.   Inner-Iter.     Column Row Layer    Maximum-Head-Change  Column Row Layer    Maximum-Flux-Residual          L2-NORM 
          0                 1           2             4    7     1       0.6950178925E-02       4    7    1         0.3633202771E+00      0.1254355304E+01
          0                 2           2             4    7     1      -0.1629009170E-01       4    7    1        -0.8748633327E+00      0.2127077970E+01
          0                 3           2             4    7     1       0.1629868053E-01       4    7    1         0.8997714451E+00      0.2197921368E+01
          0                 4           2             4    7     1      -0.6482703162E-03       4    7    1        -0.3680097345E-01      0.8477022082E-01
          0                 5           1             4   13     1      -0.2941010447E-04       4   13    1        -0.1739740597E-02      0.2364975971E-02

    ------------------------------------------------
       NWT REQUIRED            5 OUTER ITERATIONS 
       AND A TOTAL OF          9 INNER ITERATIONS.
    ------------------------------------------------

 NO OUTPUT CONTROL FOR STRESS PERIOD   30   TIME STEP    9
 
 SOLVING FOR HEAD 
                                                   Max.-Head-Change                         Max.-Flux-Residual
  Residual-Control   Outer-Iter.   Inner-Iter.     Column Row Layer    Maximum-Head-Change  Column Row Layer    Maximum-Flux-Residual          L2-NORM 
          0                 1           2             4    7     1       0.6908596663E-02       4    7    1         0.3611323412E+00      0.1242704664E+01
          0                 2           2             4    7     1      -0.7678830250E-02       4    7    1        -0.4124132301E+00      0.9917957418E+00
          0                 3           2             4    7     1       0.7339149234E-02       4    7    1         0.4051688257E+00      0.9812130487E+00
          0                 4           2             5    8     1       0.3058361842E-03       5    8    1         0.1835572857E-01      0.4228767542E-01
          0                 5           1             5    8     1       0.2590479239E-04       5    8    1         0.1503783174E-02      0.1830760046E-02

    ------------------------------------------------
       NWT REQUIRED            5 OUTER ITERATIONS 
       AND A TOTAL OF          9 INNER ITERATIONS.
    ------------------------------------------------

 NO OUTPUT CONTROL FOR STRESS PERIOD   30   TIME STEP   10
 
 SOLVING FOR HEAD 
                                                   Max.-Head-Change                         Max.-Flux-Residual
  Residual-Control   Outer-Iter.   Inner-Iter.     Column Row Layer    Maximum-Head-Change  Column Row Layer    Maximum-Flux-Residual          L2-NORM 
          0                 1           2             4    7     1       0.6867606862E-02       4    7    1         0.3589761496E+00      0.1223125260E+01
          0                 2           2             4    7     1      -0.1616936110E-01       4    7    1        -0.8683769012E+00      0.2111507005E+01
          0                 3           2             4    7     1       0.1618082557E-01       4    7    1         0.8932653816E+00      0.2182056216E+01
          0                 4           2             4    7     1      -0.6435828325E-03       4    7    1        -0.3653487116E-01      0.8415871855E-01
          0                 5           1             4   13     1      -0.2920943862E-04       4   13    1        -0.1727903123E-02      0.2348181556E-02

    ------------------------------------------------
       NWT REQUIRED            5 OUTER ITERATIONS 
       AND A TOTAL OF          9 INNER ITERATIONS.
    ------------------------------------------------

 NO OUTPUT CONTROL FOR STRESS PERIOD   30   TIME STEP   11
 
 SOLVING FOR HEAD 
                                                   Max.-Head-Change                         Max.-Flux-Residual
  Residual-Control   Outer-Iter.   Inner-Iter.     Column Row Layer    Maximum-Head-Change  Column Row Layer    Maximum-Flux-Residual          L2-NORM 
          0                 1           2             4    7     1       0.6827198632E-02       4    7    1         0.3568509394E+00      0.1213825467E+01
          0                 2           2             4    7     1      -0.7762322062E-02       4    7    1        -0.4168940674E+00      0.1003005360E+01
          0                 3           2             4    7     1       0.7379543806E-02       4    7    1         0.4073985937E+00      0.9869179947E+00
          0                 4           2             5    8     1       0.3062335922E-03       5    8    1         0.1835918165E-01      0.4117701294E-01
          0                 5           1             5    8     1       0.3559957762E-04       5    8    1         0.2052291833E-02      0.3048087669E-02

    ------------------------------------------------
       NWT REQUIRED            5 OUTER ITERATIONS 
       AND A TOTAL OF          9 INNER ITERATIONS.
    ------------------------------------------------

 NO OUTPUT CONTROL FOR STRESS PERIOD   30   TIME STEP   12
 
 SOLVING FOR HEAD 
                                                   Max.-Head-Change                         Max.-Flux-Residual
  Residual-Control   Outer-Iter.   Inner-Iter.     Column Row Layer    Maximum-Head-Change  Column Row Layer    Maximum-Flux-Residual          L2-NORM 
          0                 1           2             4    7     1       0.6787332907E-02       4    7    1         0.3547537123E+00      0.1197112335E+01
          0                 2           2             4    7     1      -0.1609556319E-01       4    7    1        -0.8644110407E+00      0.2102113252E+01
          0                 3           2             4    7     1       0.1611160540E-01       4    7    1         0.8894441584E+00      0.2172794187E+01
          0                 4           2             4    7     1      -0.6408304753E-03       4    7    1        -0.3637858065E-01      0.8379904479E-01
          0                 5           1             4   13     1      -0.2908959859E-04       4   13    1        -0.1720827446E-02      0.2338911496E-02

    ------------------------------------------------
       NWT REQUIRED            5 OUTER ITERATIONS 
       AND A TOTAL OF          9 INNER ITERATIONS.
    ------------------------------------------------

 NO OUTPUT CONTROL FOR STRESS PERIOD   30   TIME STEP   13
 
 SOLVING FOR HEAD 
                                                   Max.-Head-Change                         Max.-Flux-Residual
  Residual-Control   Outer-Iter.   Inner-Iter.     Column Row Layer    Maximum-Head-Change  Column Row Layer    Maximum-Flux-Residual          L2-NORM 
          0                 1           2             4    7     1       0.6747778129E-02       4    7    1         0.3526740287E+00      0.1189576418E+01
          0                 2           2             4    7     1      -0.7782852981E-02       4    7    1        -0.4179938495E+00      0.1005946383E+01
          0                 3           2             4    7     1       0.7385228957E-02       4    7    1         0.4077122683E+00      0.9878660762E+00
          0                 4           2             5    8     1       0.3041257279E-03       5    8    1         0.1822729324E-01      0.4061808054E-01
          0                 5           1             5    8     1       0.3948418203E-04       5    8    1         0.2271751099E-02      0.3607446059E-02

    ------------------------------------------------
       NWT REQUIRED            5 OUTER ITERATIONS 
       AND A TOTAL OF          9 INNER ITERATIONS.
    ------------------------------------------------

 NO OUTPUT CONTROL FOR STRESS PERIOD   30   TIME STEP   14
 
 SOLVING FOR HEAD 
                                                   Max.-Head-Change                         Max.-Flux-Residual
  Residual-Control   Outer-Iter.   Inner-Iter.     Column Row Layer    Maximum-Head-Change  Column Row Layer    Maximum-Flux-Residual          L2-NORM 
          0                 1           2             4    7     1       0.6708990163E-02       4    7    1         0.3506339411E+00      0.1174985843E+01
          0                 2           2             4    7     1      -0.1595422288E-01       4    7    1        -0.8568181329E+00      0.2083784067E+01
          0                 3           2             4    7     1       0.1597189757E-01       4    7    1         0.8817317302E+00      0.2153956378E+01
          0                 4           2             4    7     1      -0.6352734618E-03       4    7    1        -0.3606313731E-01      0.8307333247E-01
          0                 5           1             4   13     1      -0.2885578587E-04       4   13    1        -0.1707028897E-02      0.2319432421E-02

    ------------------------------------------------
       NWT REQUIRED            5 OUTER ITERATIONS 
       AND A TOTAL OF          9 INNER ITERATIONS.
    ------------------------------------------------

 NO OUTPUT CONTROL FOR STRESS PERIOD   30   TIME STEP   15
 
 SOLVING FOR HEAD 
                                                   Max.-Head-Change                         Max.-Flux-Residual
  Residual-Control   Outer-Iter.   Inner-Iter.     Column Row Layer    Maximum-Head-Change  Column Row Layer    Maximum-Flux-Residual          L2-NORM 
          0                 1           2             4    7     1       0.6670382994E-02       4    7    1         0.3486045807E+00      0.1168731583E+01
          0                 2           2             4    7     1      -0.1198144223E-01       4    7    1        -0.6434673772E+00      0.1559536800E+01
          0                 3           2             4    7     1       0.1184028133E-01       4    7    1         0.6536494646E+00      0.1592889286E+01
          0                 4           2             4    7     1      -0.4708805031E-03       4    7    1        -0.2673444297E-01      0.6216441475E-01
          0                 5           1             4   13     1      -0.2123973365E-04       4   13    1        -0.1256930111E-02      0.1831858686E-02

    ------------------------------------------------
       NWT REQUIRED            5 OUTER ITERATIONS 
       AND A TOTAL OF          9 INNER ITERATIONS.
    ------------------------------------------------

 NO OUTPUT CONTROL FOR STRESS PERIOD   30   TIME STEP   16
 
 SOLVING FOR HEAD 
                                                   Max.-Head-Change                         Max.-Flux-Residual
  Residual-Control   Outer-Iter.   Inner-Iter.     Column Row Layer    Maximum-Head-Change  Column Row Layer    Maximum-Flux-Residual          L2-NORM 
          0                 1           2             4    7     1       0.6632154979E-02       4    7    1         0.3465953788E+00      0.1159258770E+01
          0                 2           2             4    7     1      -0.1222050168E-01       4    7    1        -0.6563043763E+00      0.1591226019E+01
          0                 3           2             4    7     1       0.1209273584E-01       4    7    1         0.6675859691E+00      0.1627248320E+01
          0                 4           2             4    7     1      -0.4809264585E-03       4    7    1        -0.2730445293E-01      0.6338344075E-01
          0                 5           1             4   13     1      -0.2171275077E-04       4   13    1        -0.1284899453E-02      0.1848052086E-02

    ------------------------------------------------
       NWT REQUIRED            5 OUTER ITERATIONS 
       AND A TOTAL OF          9 INNER ITERATIONS.
    ------------------------------------------------

 NO OUTPUT CONTROL FOR STRESS PERIOD   30   TIME STEP   17
 
 SOLVING FOR HEAD 
                                                   Max.-Head-Change                         Max.-Flux-Residual
  Residual-Control   Outer-Iter.   Inner-Iter.     Column Row Layer    Maximum-Head-Change  Column Row Layer    Maximum-Flux-Residual          L2-NORM 
          0                 1           2             4    7     1       0.6594431375E-02       4    7    1         0.3446132344E+00      0.1150601689E+01
          0                 2           2             4    7     1      -0.7594303966E-02       4    7    1        -0.4078632466E+00      0.9816217848E+00
          0                 3           2             4    7     1       0.7102728993E-02       4    7    1         0.3921167794E+00      0.9499270359E+00
          0                 4           2             5    8     1       0.3162971816E-03       5    8    1         0.1887583025E-01      0.3740678191E-01
          0                 5           1             5    8     1       0.5830535000E-04       5    8    1         0.3338604668E-02      0.6185914746E-02

    ------------------------------------------------
       NWT REQUIRED            5 OUTER ITERATIONS 
       AND A TOTAL OF          9 INNER ITERATIONS.
    ------------------------------------------------

 NO OUTPUT CONTROL FOR STRESS PERIOD   30   TIME STEP   18
 
 SOLVING FOR HEAD 
                                                   Max.-Head-Change                         Max.-Flux-Residual
  Residual-Control   Outer-Iter.   Inner-Iter.     Column Row Layer    Maximum-Head-Change  Column Row Layer    Maximum-Flux-Residual          L2-NORM 
          0                 1           2             4    7     1       0.6557635004E-02       4    7    1         0.3426774198E+00      0.1138853728E+01
          0                 2           2             4    7     1      -0.1565143839E-01       4    7    1        -0.8405531059E+00      0.2044433677E+01
          0                 3           2             4    7     1       0.1567105139E-01       4    7    1         0.8651238154E+00      0.2113369502E+01
          0                 4           2             4    7     1      -0.6233067705E-03       4    7    1        -0.3538386298E-01      0.8151027619E-01
          0                 5           1             4   13     1      -0.2830757135E-04       4   13    1        -0.1674653207E-02      0.2274887551E-02

    ------------------------------------------------
       NWT REQUIRED            5 OUTER ITERATIONS 
       AND A TOTAL OF          9 INNER ITERATIONS.
    ------------------------------------------------

 NO OUTPUT CONTROL FOR STRESS PERIOD   30   TIME STEP   19
 
 SOLVING FOR HEAD 
                                                   Max.-Head-Change                         Max.-Flux-Residual
  Residual-Control   Outer-Iter.   Inner-Iter.     Column Row Layer    Maximum-Head-Change  Column Row Layer    Maximum-Flux-Residual          L2-NORM 
          0                 1           2             4    7     1       0.6520789859E-02       4    7    1         0.3407420535E+00      0.1134085499E+01
          0                 2           2             4    7     1      -0.1179222480E-01       4    7    1        -0.6333012582E+00      0.1535372747E+01
          0                 3           2             4    7     1       0.1165748044E-01       4    7    1         0.6435579769E+00      0.1568251648E+01
          0                 4           2             4    7     1      -0.4636107958E-03       4    7    1        -0.2632169616E-01      0.6090353193E-01
          0                 5           1             4   13     1      -0.1479895416E-04       4   13    1        -0.8734186786E-03      0.1566945309E-02

    ------------------------------------------------
       NWT REQUIRED            5 OUTER ITERATIONS 
       AND A TOTAL OF          9 INNER ITERATIONS.
    ------------------------------------------------

 NO OUTPUT CONTROL FOR STRESS PERIOD   30   TIME STEP   20
 
 SOLVING FOR HEAD 
                                                   Max.-Head-Change                         Max.-Flux-Residual
  Residual-Control   Outer-Iter.   Inner-Iter.     Column Row Layer    Maximum-Head-Change  Column Row Layer    Maximum-Flux-Residual          L2-NORM 
          0                 1           2             4    7     1       0.6484278052E-02       4    7    1         0.3388242112E+00      0.1125532183E+01
          0                 2           2             4    7     1      -0.1202512582E-01       4    7    1        -0.6458077065E+00      0.1566368073E+01
          0                 3           2             4    7     1       0.1190336225E-01       4    7    1         0.6571316562E+00      0.1601718681E+01
          0                 4           2             4    7     1      -0.4733952399E-03       4    7    1        -0.2687686630E-01      0.6190423665E-01
          0                 5           1             4   13     1      -0.1504491967E-04       4   13    1        -0.8905511386E-03      0.1447567435E-02

    ------------------------------------------------
       NWT REQUIRED            5 OUTER ITERATIONS 
       AND A TOTAL OF          9 INNER ITERATIONS.
    ------------------------------------------------

 NO OUTPUT CONTROL FOR STRESS PERIOD   30   TIME STEP   21
 
 SOLVING FOR HEAD 
                                                   Max.-Head-Change                         Max.-Flux-Residual
  Residual-Control   Outer-Iter.   Inner-Iter.     Column Row Layer    Maximum-Head-Change  Column Row Layer    Maximum-Flux-Residual          L2-NORM 
          0                 1           2             4    7     1       0.6448230166E-02       4    7    1         0.3369310496E+00      0.1118423450E+01
          0                 2           2             4    7     1      -0.1199582560E-01       4    7    1        -0.6442332374E+00      0.1562633800E+01
          0                 3           2             4    7     1       0.1187627476E-01       4    7    1         0.6556362917E+00      0.1598109863E+01
          0                 4           2             4    7     1      -0.4723184530E-03       4    7    1        -0.2681570517E-01      0.6175512464E-01
          0                 5           1             4   13     1      -0.1501310778E-04       4   13    1        -0.8886650230E-03      0.1442564685E-02

    ------------------------------------------------
       NWT REQUIRED            5 OUTER ITERATIONS 
       AND A TOTAL OF          9 INNER ITERATIONS.
    ------------------------------------------------

 NO OUTPUT CONTROL FOR STRESS PERIOD   30   TIME STEP   22
 
 SOLVING FOR HEAD 
                                                   Max.-Head-Change                         Max.-Flux-Residual
  Residual-Control   Outer-Iter.   Inner-Iter.     Column Row Layer    Maximum-Head-Change  Column Row Layer    Maximum-Flux-Residual          L2-NORM 
          0                 1           2             4    7     1       0.6412496597E-02       4    7    1         0.3350546043E+00      0.1111932999E+01
          0                 2           2             4    7     1      -0.1197814773E-01       4    7    1        -0.6432829509E+00      0.1560427840E+01
          0                 3           2             4    7     1       0.1186125524E-01       4    7    1         0.6548071307E+00      0.1596139568E+01
          0                 4           2             4    7     1      -0.4717218431E-03       4    7    1        -0.2678179205E-01      0.6166473298E-01
          0                 5           1             4   13     1      -0.1498422433E-04       4   13    1        -0.8869551230E-03      0.1436752146E-02

    ------------------------------------------------
       NWT REQUIRED            5 OUTER ITERATIONS 
       AND A TOTAL OF          9 INNER ITERATIONS.
    ------------------------------------------------

 NO OUTPUT CONTROL FOR STRESS PERIOD   30   TIME STEP   23
 
 SOLVING FOR HEAD 
                                                   Max.-Head-Change                         Max.-Flux-Residual
  Residual-Control   Outer-Iter.   Inner-Iter.     Column Row Layer    Maximum-Head-Change  Column Row Layer    Maximum-Flux-Residual          L2-NORM 
          0                 1           2             4    7     1       0.6377073285E-02       4    7    1         0.3331944557E+00      0.1105713404E+01
          0                 2           2             4    7     1      -0.1196687531E-01       4    7    1        -0.6426766631E+00      0.1559068772E+01
          0                 3           2             4    7     1       0.1185287379E-01       4    7    1         0.6543444184E+00      0.1595069330E+01
          0                 4           2             4    7     1      -0.4713893589E-03       4    7    1        -0.2676286689E-01      0.6160649096E-01
          0                 5           1             4   13     1      -0.1498631242E-04       4   13    1        -0.8870882084E-03      0.1432113245E-02

    ------------------------------------------------
       NWT REQUIRED            5 OUTER ITERATIONS 
       AND A TOTAL OF          9 INNER ITERATIONS.
    ------------------------------------------------

 NO OUTPUT CONTROL FOR STRESS PERIOD   30   TIME STEP   24
 
 SOLVING FOR HEAD 
                                                   Max.-Head-Change                         Max.-Flux-Residual
  Residual-Control   Outer-Iter.   Inner-Iter.     Column Row Layer    Maximum-Head-Change  Column Row Layer    Maximum-Flux-Residual          L2-NORM 
          0                 1           2             4    7     1       0.6342086385E-02       4    7    1         0.3313577276E+00      0.1099737799E+01
          0                 2           2             4    7     1      -0.1195921254E-01       4    7    1        -0.6422642867E+00      0.1558181172E+01
          0                 3           2             4    7     1       0.1184820834E-01       4    7    1         0.6540868493E+00      0.1594505244E+01
          0                 4           2             4    7     1      -0.4712047187E-03       4    7    1        -0.2675233218E-01      0.6156747442E-01
          0                 5           1             4   13     1      -0.1498039715E-04       4   13    1        -0.8867266715E-03      0.1427992225E-02

    ------------------------------------------------
       NWT REQUIRED            5 OUTER ITERATIONS 
       AND A TOTAL OF          9 INNER ITERATIONS.
    ------------------------------------------------

 NO OUTPUT CONTROL FOR STRESS PERIOD   30   TIME STEP   25
 
 SOLVING FOR HEAD 
                                                   Max.-Head-Change                         Max.-Flux-Residual
  Residual-Control   Outer-Iter.   Inner-Iter.     Column Row Layer    Maximum-Head-Change  Column Row Layer    Maximum-Flux-Residual          L2-NORM 
          0                 1           2             4    7     1       0.6307528150E-02       4    7    1         0.3295436280E+00      0.1094004499E+01
          0                 2           2             4    7     1      -0.1195360485E-01       4    7    1        -0.6419622960E+00      0.1557565730E+01
          0                 3           2             4    7     1       0.1184564144E-01       4    7    1         0.6539451299E+00      0.1594224845E+01
          0                 4           2             4    7     1      -0.4711035804E-03       4    7    1        -0.2674653579E-01      0.6153875165E-01
          0                 5           1             4   13     1      -0.1497265338E-04       4   13    1        -0.8862694303E-03      0.1423196889E-02

    ------------------------------------------------
       NWT REQUIRED            5 OUTER ITERATIONS 
       AND A TOTAL OF          9 INNER ITERATIONS.
    ------------------------------------------------

 NO OUTPUT CONTROL FOR STRESS PERIOD   30   TIME STEP   26
 
 SOLVING FOR HEAD 
                                                   Max.-Head-Change                         Max.-Flux-Residual
  Residual-Control   Outer-Iter.   Inner-Iter.     Column Row Layer    Maximum-Head-Change  Column Row Layer    Maximum-Flux-Residual          L2-NORM 
          0                 1           2             4    7     1       0.6273249650E-02       4    7    1         0.3277444199E+00      0.1088474691E+01
          0                 2           2             4    7     1      -0.1195129191E-01       4    7    1        -0.6418372706E+00      0.1557384783E+01
          0                 3           2             4    7     1       0.1184647759E-01       4    7    1         0.6539912741E+00      0.1594406253E+01
          0                 4           2             4    7     1      -0.4711378474E-03       4    7    1        -0.2674842311E-01      0.6152690805E-01
          0                 5           1             4   13     1      -0.1497207154E-04       4   13    1        -0.8862433879E-03      0.1418288617E-02

    ------------------------------------------------
       NWT REQUIRED            5 OUTER ITERATIONS 
       AND A TOTAL OF          9 INNER ITERATIONS.
    ------------------------------------------------

 NO OUTPUT CONTROL FOR STRESS PERIOD   30   TIME STEP   27
 
 SOLVING FOR HEAD 
                                                   Max.-Head-Change                         Max.-Flux-Residual
  Residual-Control   Outer-Iter.   Inner-Iter.     Column Row Layer    Maximum-Head-Change  Column Row Layer    Maximum-Flux-Residual          L2-NORM 
          0                 1           2             4    7     1       0.6239249138E-02       4    7    1         0.3259597156E+00      0.1083140521E+01
          0                 2           2             4    7     1      -0.1197960914E-01       4    7    1        -0.6433571744E+00      0.1561246400E+01
          0                 3           2             4    7     1       0.1187917040E-01       4    7    1         0.6557960414E+00      0.1598913088E+01
          0                 4           2             4    7     1      -0.4724396510E-03       4    7    1        -0.2682223897E-01      0.6167194398E-01
          0                 5           1             4   13     1      -0.1501232716E-04       4   13    1        -0.8886123724E-03      0.1415696273E-02

    ------------------------------------------------
       NWT REQUIRED            5 OUTER ITERATIONS 
       AND A TOTAL OF          9 INNER ITERATIONS.
    ------------------------------------------------

 NO OUTPUT CONTROL FOR STRESS PERIOD   30   TIME STEP   28
 
 SOLVING FOR HEAD 
                                                   Max.-Head-Change                         Max.-Flux-Residual
  Residual-Control   Outer-Iter.   Inner-Iter.     Column Row Layer    Maximum-Head-Change  Column Row Layer    Maximum-Flux-Residual          L2-NORM 
          0                 1           2             4    7     1       0.6205658052E-02       4    7    1         0.3241967603E+00      0.1078015798E+01
          0                 2           2             4    7     1      -0.1196005760E-01       4    7    1        -0.6423064186E+00      0.1558789407E+01
          0                 3           2             4    7     1       0.1186199783E-01       4    7    1         0.6548480293E+00      0.1596648031E+01
          0                 4           2             4    7     1      -0.4717573533E-03       4    7    1        -0.2678346482E-01      0.6154299393E-01
          0                 5           1             4   13     1      -0.1501898351E-04       4   13    1        -0.8865432928E-03      0.1525771936E-02

    ------------------------------------------------
       NWT REQUIRED            5 OUTER ITERATIONS 
       AND A TOTAL OF          9 INNER ITERATIONS.
    ------------------------------------------------

 NO OUTPUT CONTROL FOR STRESS PERIOD   30   TIME STEP   29
 
 SOLVING FOR HEAD 
                                                   Max.-Head-Change                         Max.-Flux-Residual
  Residual-Control   Outer-Iter.   Inner-Iter.     Column Row Layer    Maximum-Head-Change  Column Row Layer    Maximum-Flux-Residual          L2-NORM 
          0                 1           2             4    7     1       0.6172328383E-02       4    7    1         0.3224476981E+00      0.1073037430E+01
          0                 2           2             4    7     1      -0.1194732293E-01       4    7    1        -0.6416217729E+00      0.1557231575E+01
          0                 3           2             4    7     1       0.1185189622E-01       4    7    1         0.6542903655E+00      0.1595342808E+01
          0                 4           2             4    7     1      -0.4713563961E-03       4    7    1        -0.2676065608E-01      0.6150791597E-01
          0                 5           1             4   13     1      -0.1498307816E-04       4   13    1        -0.8868661753E-03      0.1407291285E-02

    ------------------------------------------------
       NWT REQUIRED            5 OUTER ITERATIONS 
       AND A TOTAL OF          9 INNER ITERATIONS.
    ------------------------------------------------

 NO OUTPUT CONTROL FOR STRESS PERIOD   30   TIME STEP   30



 STREAM LISTING     PERIOD     30   STEP       30

 LAYER ROW COL. STREAM  RCH.  FLOW INTO     FLOW TO   FLOW OUT OF   OVRLND.     DIRECT     STREAM       STREAM     STREAM     STREAM   STREAMBED  STREAMBED
                SEG.NO.  NO.  STRM. RCH.    AQUIFER    STRM. RCH.    RUNOFF     PRECIP       ET          HEAD       DEPTH      WIDTH   CONDCTNC.   GRADIENT

   1    1    1     1     1    3.7124E+01  2.9395E-01   3.6830E+01  0.000E+00  0.000E+00  0.000E+00  1.09436E+03  1.309E+00  1.516E+01  6.821E-02  1.436E+00
   1    2    2     1     2    3.6830E+01  4.5517E-01   3.6375E+01  0.000E+00  0.000E+00  0.000E+00  1.08936E+03  1.306E+00  1.510E+01  1.057E-01  1.435E+00
   1    3    3     1     3    3.6375E+01  3.8813E-01   3.5987E+01  0.000E+00  0.000E+00  0.000E+00  1.08372E+03  1.303E+00  1.503E+01  9.020E-02  1.434E+00
   1    3    4     1     4    3.5987E+01  3.5736E-01   3.5629E+01  0.000E+00  0.000E+00  0.000E+00  1.07871E+03  1.300E+00  1.497E+01  8.311E-02  1.433E+00
   1    4    5     2     1    3.3629E+01  3.4618E-01   3.3283E+01  0.000E+00  0.000E+00  0.000E+00  1.07337E+03  1.438E+00  1.200E+01  7.800E-02  1.479E+00
   1    5    6     2     2    3.3283E+01  2.6582E-01   3.3017E+01  0.000E+00  0.000E+00  0.000E+00  1.06794E+03  1.430E+00  1.200E+01  6.000E-02  1.477E+00
   1    6    6     2     3    3.3017E+01  2.6541E-01   3.2752E+01  0.000E+00  0.000E+00  0.000E+00  1.06322E+03  1.423E+00  1.200E+01  6.000E-02  1.474E+00
   1    7    6     2     4    3.2752E+01  2.6499E-01   3.2487E+01  0.000E+00  0.000E+00  0.000E+00  1.05849E+03  1.417E+00  1.200E+01  6.000E-02  1.472E+00
   1    8    6     2     5    3.2487E+01  2.6458E-01   3.2222E+01  0.000E+00  0.000E+00  0.000E+00  1.05377E+03  1.410E+00  1.200E+01  6.000E-02  1.470E+00
   1    3    5     3     1    2.0000E+00  2.8252E-01   1.7175E+00  0.000E+00  0.000E+00  0.000E+00  1.07555E+03  1.909E+00  9.636E+00  7.227E-02  1.955E+00
   1    3    6     3     2    1.7175E+00  2.4905E-01   1.4684E+00  0.000E+00  0.000E+00  0.000E+00  1.07264E+03  1.727E+00  8.909E+00  6.682E-02  1.864E+00
   1    3    7     3     3    1.4684E+00  1.9718E-01   1.2712E+00  0.000E+00  0.000E+00  0.000E+00  1.06987E+03  1.555E+00  8.218E+00  5.547E-02  1.777E+00
   1    4    8     3     4    1.2712E+00  2.2567E-01   1.0456E+00  0.000E+00  0.000E+00  0.000E+00  1.06682E+03  1.364E+00  7.455E+00  6.709E-02  1.682E+00
   1    5    8     3     5    1.0456E+00  1.5790E-01   8.8768E-01  0.000E+00  0.000E+00  0.000E+00  1.06362E+03  1.164E+00  6.655E+00  4.991E-02  1.582E+00
   1    6    8     3     6    8.8768E-01  5.5980E-02   8.3170E-01  0.000E+00  0.000E+00  0.000E+00  1.06158E+03  1.036E+00  6.145E+00  1.844E-02  1.518E+00
   1    5   10     4     1    1.0000E+01  9.0919E-02   9.9091E+00  0.000E+00  0.000E+00  0.000E+00  1.07836E+03  6.368E-01  1.000E+01  2.500E-02  1.212E+00
   1    5    9     4     2    9.9091E+00  1.8158E-01   9.7275E+00  0.000E+00  0.000E+00  0.000E+00  1.07154E+03  6.315E-01  1.000E+01  5.000E-02  1.211E+00
   1    6    8     4     3    9.7275E+00  1.2689E-01   9.6006E+00  0.000E+00  0.000E+00  0.000E+00  1.06381E+03  6.256E-01  1.000E+01  3.500E-02  1.209E+00
   1    6    8     5     1    1.0432E+01  2.2686E-01   1.0205E+01  0.000E+00  0.000E+00  0.000E+00  1.05868E+03  6.790E-01  1.542E+01  6.166E-02  1.226E+00
   1    7    7     5     2    1.0205E+01  2.7894E-01   9.9265E+00  0.000E+00  0.000E+00  0.000E+00  1.05417E+03  6.732E-01  1.519E+01  7.594E-02  1.224E+00
   1    8    7     5     3    9.9265E+00  1.9221E-01   9.7343E+00  0.000E+00  0.000E+00  0.000E+00  1.04992E+03  6.676E-01  1.497E+01  5.241E-02  1.223E+00
   1    8    6     5     4    9.7343E+00  1.3577E-01   9.5985E+00  0.000E+00  0.000E+00  0.000E+00  1.04691E+03  6.637E-01  1.482E+01  3.706E-02  1.221E+00
   1    9    6     6     1    3.4508E+01  2.6869E-01   3.4240E+01  0.000E+00  0.000E+00  0.000E+00  1.04421E+03  1.478E+00  1.200E+01  6.000E-02  1.493E+00
   1   10    7     6     2    3.4240E+01  2.6827E-01   3.3971E+01  0.000E+00  0.000E+00  0.000E+00  1.03965E+03  1.471E+00  1.200E+01  6.000E-02  1.490E+00
   1   11    7     6     3    3.3971E+01  2.6785E-01   3.3703E+01  0.000E+00  0.000E+00  0.000E+00  1.03510E+03  1.464E+00  1.200E+01  6.000E-02  1.488E+00
   1   12    7     6     4    3.3703E+01  2.6744E-01   3.3436E+01  0.000E+00  0.000E+00  0.000E+00  1.03055E+03  1.457E+00  1.200E+01  6.000E-02  1.486E+00
   1   13    7     6     5    3.3436E+01  1.7680E-02   3.3418E+01  0.000E+00  0.000E+00  0.000E+00  1.02736E+03  1.454E+00  1.200E+01  2.400E-02  2.456E-01
   1   14    9     7     1    1.5000E+02  1.3826E+00   1.4862E+02  0.000E+00  0.000E+00  0.000E+00  1.03987E+03  2.288E+00  5.529E+01  5.593E-01  8.240E-01
   1   13    8     7     2    1.4862E+02  1.9802E+00   1.4664E+02  0.000E+00  0.000E+00  0.000E+00  1.03478E+03  2.279E+00  5.525E+01  6.147E-01  1.074E+00
   1   13    7     7     3    1.4664E+02  1.7098E+00   1.4493E+02  0.000E+00  0.000E+00  0.000E+00  1.02969E+03  2.269E+00  5.521E+01  5.584E-01  1.021E+00
   1   13    6     8     1    1.7835E+02  1.1885E+00   1.7716E+02  0.000E+00  0.000E+00  0.000E+00  1.02488E+03  3.002E+00  4.353E+01  4.436E-01  8.931E-01
   1   13    5     8     2    1.7716E+02  4.0350E-01   1.7675E+02  0.000E+00  0.000E+00  0.000E+00  1.01862E+03  2.997E+00  4.346E+01  4.428E-01  3.037E-01
   1   13    4     8     3    1.7675E+02 -1.7207E+00   1.7847E+02  0.000E+00  0.000E+00  0.000E+00  1.01238E+03  3.001E+00  4.352E+01  4.434E+00 -1.293E-01
   1   13    3     8     4    1.7847E+02 -3.2872E+00   1.8176E+02  0.000E+00  0.000E+00  0.000E+00  1.00614E+03  3.017E+00  4.375E+01  4.458E+00 -2.458E-01
   1   13    2     8     5    1.8176E+02 -2.4473E+00   1.8421E+02  0.000E+00  0.000E+00  0.000E+00  9.99910E+02  3.035E+00  4.401E+01  4.484E+00 -1.819E-01
   1   13    1     8     6    1.8421E+02 -1.9137E+00   1.8612E+02  0.000E+00  0.000E+00  0.000E+00  9.94923E+02  3.048E+00  4.420E+01  2.703E+00 -2.360E-01
   1    8    6     9     1    7.3125E+00  0.0000E+00   7.3125E+00  0.000E+00  0.000E+00  0.000E+00  1.08063E+03  1.878E+00  4.000E+00  0.000E+00  1.626E+00
   1    8    5     9     2    7.3125E+00  0.0000E+00   7.3125E+00  0.000E+00  0.000E+00  0.000E+00  1.08013E+03  1.878E+00  4.000E+00  0.000E+00  1.626E+00





UNSATURATED ZONE PACKAGE VOLUMETRIC BUDGET FOR  TIME STEP    30 STRESS PERIOD   30
  ------------------------------------------------------------------------------



     CUMULATIVE VOLUMES      L**3       RATES FOR THIS TIME STEP      L**3/T
     ------------------                 ------------------------

           IN:                                      IN:
           ---                                      ---
        INFILTRATION =  1321781681.4321          INFILTRATION =          11.7202

          OUT:                                     OUT:
          ----                                     ----
              UZF ET =  1060543274.5837                UZF ET =          11.6075
        UZF RECHARGE =     5052081.7937          UZF RECHARGE =           0.0456

            IN - OUT =   256186325.0547              IN - OUT =       6.7044E-02

          STORAGE:                                 STORAGE:
          --------                                 --------
      STORAGE CHANGE =   256186304.7595        STORAGE CHANGE =       6.7044E-02

 PERCENT DISCREPANCY IS DIFFERENCE BETWEEN IN-OUT MINUS CHANGE IN STORAGE
 DIVIDED BY THE AVERAGE OF IN AND OUT TIMES 100

 PERCENT DISCREPANCY =           0.00     PERCENT DISCREPANCY =           0.00






1
  VOLUMETRIC BUDGET FOR AGRICULTURAL FIELDS AT  END OF TIME STEP   30, STRESS PERIOD  30
  ------------------------------------------------------------------------------

     CUMULATIVE VOLUMES      L**3       RATES FOR THIS TIME STEP      L**3/T
     ------------------                 ------------------------

           IN:                                      IN:
           ---                                      ---
               AG WELLS  =   599560960.0000                 AG WELLS  =           0.0000
      DIVERSION SEGMENTS =   386200352.0000        DIVERSION SEGMENTS =           7.3125
           GW IRRIGATION =           0.0000             GW IRRIGATION =           0.0000
           SW IRRIGATION =           0.0000             SW IRRIGATION =           0.0000
        SYSTEM LOSSES GW =           0.0000          SYSTEM LOSSES GW =           0.0000
        SYSTEM LOSSES SW =           0.0000          SYSTEM LOSSES SW =           0.0000

                TOTAL IN =   985761280.0000                  TOTAL IN =           7.3125

          OUT:                                     OUT:
          ----                                     ----
               AG WELLS  =           0.0000                 AG WELLS  =           0.0000
      DIVERSION SEGMENTS =           0.0000        DIVERSION SEGMENTS =           0.0000
           GW IRRIGATION =   599560960.0000             GW IRRIGATION =           0.0000
           SW IRRIGATION =   386208000.0000             SW IRRIGATION =           7.3127
        SYSTEM LOSSES GW =           0.0000          SYSTEM LOSSES GW =           0.0000
        SYSTEM LOSSES SW =           0.0000          SYSTEM LOSSES SW =           0.0000

               TOTAL OUT =   985768960.0000                 TOTAL OUT =           7.3127

                IN - OUT =       -7680.0000                  IN - OUT =      -1.4591E-04

     PERCENT DISCREPANCY =          -0.00         PERCENT DISCREPANCY =          -0.00



1
  VOLUMETRIC BUDGET FOR ENTIRE MODEL AT END OF TIME STEP   30, STRESS PERIOD  30
  ------------------------------------------------------------------------------

     CUMULATIVE VOLUMES      L**3       RATES FOR THIS TIME STEP      L**3/T
     ------------------                 ------------------------

           IN:                                      IN:
           ---                                      ---
             STORAGE     =   925972416.0000               STORAGE     =           1.7314
       CONSTANT HEAD     =           0.0000         CONSTANT HEAD     =           0.0000
     HEAD DEP BOUNDS     =    22007118.0000       HEAD DEP BOUNDS     =           0.2889
      STREAM LEAKAGE     =   901747392.0000        STREAM LEAKAGE     =          13.0576
        UZF RECHARGE     =     5052081.5000          UZF RECHARGE     =       4.5625E-02
               GW ET     =           0.0000                 GW ET     =           0.0000
     SURFACE LEAKAGE     =           0.0000       SURFACE LEAKAGE     =           0.0000
           AG WELLS      =           0.0000             AG WELLS      =           0.0000

                TOTAL IN =  1854779008.0000                  TOTAL IN =          15.1236

          OUT:                                     OUT:
          ----                                     ----
             STORAGE     =   464181440.0000               STORAGE     =           5.4647
       CONSTANT HEAD     =           0.0000         CONSTANT HEAD     =           0.0000
     HEAD DEP BOUNDS     =    21986982.0000       HEAD DEP BOUNDS     =           0.2900
      STREAM LEAKAGE     =   769059136.0000        STREAM LEAKAGE     =           9.3690
        UZF RECHARGE     =           0.0000          UZF RECHARGE     =           0.0000
               GW ET     =           0.0000                 GW ET     =           0.0000
     SURFACE LEAKAGE     =           0.0000       SURFACE LEAKAGE     =           0.0000
           AG WELLS      =   599560960.0000             AG WELLS      =           0.0000

               TOTAL OUT =  1854788480.0000                 TOTAL OUT =          15.1236

                IN - OUT =       -9472.0000                  IN - OUT =      -4.9591E-05

     PERCENT DISCREPANCY =          -0.00         PERCENT DISCREPANCY =          -0.00






         TIME SUMMARY AT END OF TIME STEP   30 IN STRESS PERIOD   30
                    SECONDS     MINUTES      HOURS       DAYS        YEARS
                    -----------------------------------------------------------
   TIME STEP LENGTH  87667.      1461.1      24.352      1.0147     2.77799E-03
 STRESS PERIOD TIME 2.63000E+06  43833.      730.56      30.440     8.33397E-02
         TOTAL TIME 7.63565E+07 1.27261E+06  21210.      883.76      2.4196    
1
1
                            STRESS PERIOD NO.   31, LENGTH =   2630000.    
                            -----------------------------------------------

                              NUMBER OF TIME STEPS =    30

                               MULTIPLIER FOR DELT =     1.000

                            INITIAL TIME STEP SIZE =   87666.66    

 REUSING NON-PARAMETER GHB CELLS FROM LAST STRESS PERIOD

      2 GHB CELLS

 REUSING STREAM SEGMENT DATA FROM LAST STRESS PERIOD



            AREAL INFILTRATION RATE
 READING ON UNIT   19 WITH FORMAT: (10F4.0)            

            1           2           3           4           5           6           7           8           9          10
 ........................................................................................................................
   1   1.2000E-09   0.000       0.000       0.000       0.000       0.000       0.000       0.000       0.000       0.000    
   2   2.1000E-09  2.0000E-09  8.0000E-10  8.5000E-09   0.000       0.000       0.000       0.000       0.000       0.000    
   3   5.0000E-10  1.1000E-09  8.8000E-09  5.5000E-09   0.000       0.000       0.000       0.000       0.000       0.000    
   4   8.5000E-09  1.1000E-09  1.1000E-09  1.1000E-09  2.0000E-09   0.000       0.000       0.000       0.000       0.000    
   5   8.5000E-09  1.1000E-09  1.1000E-09  1.1000E-09  1.1000E-09   0.000       0.000       0.000       0.000       0.000    
   6   8.5000E-09  5.2000E-09  2.1000E-09  1.1000E-09  1.5000E-09   0.000       0.000       0.000       0.000       0.000    
   7   8.5000E-09  5.2000E-09  2.1000E-09  1.2000E-09  2.0000E-09   0.000       0.000       0.000       0.000       0.000    
   8   5.0000E-10  5.2000E-09  2.1000E-09  1.2000E-09  5.0000E-09   0.000       0.000       0.000       0.000       0.000    
   9   5.0000E-10  5.2000E-09  2.1000E-09  1.2000E-09  5.0000E-09   0.000       0.000       0.000       0.000       0.000    
  10   5.0000E-10  5.2000E-09  2.1000E-09  1.2000E-09  5.8000E-09   0.000       0.000       0.000       0.000       0.000    
  11   1.0000E-10  1.1000E-09  1.1000E-09  1.2000E-09  5.0000E-09   0.000       0.000       0.000       0.000       0.000    
  12   1.1000E-09  1.1000E-09  1.1000E-09  1.1000E-09  2.0000E-09   0.000       0.000       0.000       0.000       0.000    
  13   1.1000E-09  2.2000E-09  2.2000E-09  2.1000E-09  1.0000E-09   0.000       0.000       0.000       0.000       0.000    
  14   2.0000E-10  5.5000E-09  5.5000E-09  5.2000E-09  1.0000E-09   0.000       0.000       0.000       0.000       0.000    
  15    0.000      8.8000E-09  8.8000E-09   0.000       0.000       0.000       0.000       0.000       0.000       0.000    

                  ET RATE =  1.500000E-07

 USING ET EXTINCTION DEPTH FROM PREVIOUS STRESS PERIOD. CURRENT PERIOD IS:      31

 USING EXTINCTION WATER CONTENT FROM PREVIOUS STRESS PERIOD. CURRENT PERIOD IS:      31

 USING AIR ENTRY PRESSURE FROM PREVIOUS STRESS PERIOD. CURRENT PERIOD IS:      31

 USING ROOT PRESSURE HEAD FROM PREVIOUS STRESS PERIOD. CURRENT PERIOD IS:      31

 USING ROOT ACTIVITY FROM PREVIOUS STRESS PERIOD. CURRENT PERIOD IS:      31

 PROCESSING AG STRESS PERIOD DATA

 READING AG STRESS PERIOD DATA

 READING IRRIGATION SEGMENT

 READING IRRIGATION WELL

 READING SUPPLEMENTAL WELL

 END PROCESSING AG STRESS PERIOD DATA OPTIONS
 
 SOLVING FOR HEAD 
                                                   Max.-Head-Change                         Max.-Flux-Residual
  Residual-Control   Outer-Iter.   Inner-Iter.     Column Row Layer    Maximum-Head-Change  Column Row Layer    Maximum-Flux-Residual          L2-NORM 
          0                 1           2             4    7     1       0.6139372567E-02       4    7    1         0.3207195251E+00      0.1026498938E+01
          0                 2           2             4    7     1      -0.4901787600E-01       4    7    1        -0.2632420222E+01      0.6454963975E+01
          0                 3           2             4    7     1       0.4462928604E-01       4    7    1         0.2463740124E+01      0.6042438673E+01
          0                 4           2             4    7     1      -0.1775864877E-02       4    7    1        -0.1007691329E+00      0.2486622861E+00
          0                 5           1             7   13     1       0.2388128321E-04       7   13    1         0.1333985909E-02      0.3446540783E-02

    ------------------------------------------------
       NWT REQUIRED            5 OUTER ITERATIONS 
       AND A TOTAL OF          9 INNER ITERATIONS.
    ------------------------------------------------

 NO OUTPUT CONTROL FOR STRESS PERIOD   31   TIME STEP    1
 
 SOLVING FOR HEAD 
                                                   Max.-Head-Change                         Max.-Flux-Residual
  Residual-Control   Outer-Iter.   Inner-Iter.     Column Row Layer    Maximum-Head-Change  Column Row Layer    Maximum-Flux-Residual          L2-NORM 
          0                 1           2             4    7     1       0.6141824259E-02       4    7    1         0.3207117749E+00      0.1018540007E+01
          0                 2           2             4    7     1      -0.5470165552E-02       4    7    1        -0.2937608744E+00      0.7318362485E+00
          0                 3           2             4    7     1       0.4389989628E-02       4    7    1         0.2423555392E+00      0.5868687160E+00
          0                 4           1             5    8     1       0.3308534718E-03       5    8    1         0.1919410878E-01      0.2131111959E-01
          0                 5           1             5    8     1       0.6227087088E-04       4   13    1        -0.3590137507E-02      0.8105118990E-02

    ------------------------------------------------
       NWT REQUIRED            5 OUTER ITERATIONS 
       AND A TOTAL OF          8 INNER ITERATIONS.
    ------------------------------------------------

 NO OUTPUT CONTROL FOR STRESS PERIOD   31   TIME STEP    2
 
 SOLVING FOR HEAD 
                                                   Max.-Head-Change                         Max.-Flux-Residual
  Residual-Control   Outer-Iter.   Inner-Iter.     Column Row Layer    Maximum-Head-Change  Column Row Layer    Maximum-Flux-Residual          L2-NORM 
          0                 1           2             4    7     1       0.6114145350E-02       4    7    1         0.3192643512E+00      0.1003418848E+01
          0                 2           2             4    7     1      -0.5838421491E-01       4    7    1        -0.3135407762E+01      0.7694732724E+01
          0                 3           2             4    7     1       0.2742251873E-01       4    7    1         0.1513853105E+01      0.3701781386E+01
          0                 4           2             4    7     1      -0.1091180168E-02       4    7    1        -0.6191744178E-01      0.1526901625E+00
          0                 5           1             7   13     1       0.2449277130E-04       7   13    1         0.1366375820E-02      0.2452864578E-02

    ------------------------------------------------
       NWT REQUIRED            5 OUTER ITERATIONS 
       AND A TOTAL OF          9 INNER ITERATIONS.
    ------------------------------------------------

 NO OUTPUT CONTROL FOR STRESS PERIOD   31   TIME STEP    3
 
 SOLVING FOR HEAD 
                                                   Max.-Head-Change                         Max.-Flux-Residual
  Residual-Control   Outer-Iter.   Inner-Iter.     Column Row Layer    Maximum-Head-Change  Column Row Layer    Maximum-Flux-Residual          L2-NORM 
          0                 1           2             4    7     1       0.6284389178E-02       4    7    1         0.3273696927E+00      0.1048966106E+01
          0                 2           2             4    7     1      -0.1315356054E-01       4    7    1        -0.7062932621E+00      0.1746447358E+01
          0                 3           2             4    7     1       0.1259740128E-01       4    7    1         0.6954238554E+00      0.1709773512E+01
          0                 4           2             4    7     1      -0.5320272412E-03       4    7    1        -0.3018857856E-01      0.7402101036E-01
          0                 5           1             4   13     1      -0.6843601500E-04       4   13    1        -0.4260903883E-02      0.7906834616E-02

    ------------------------------------------------
       NWT REQUIRED            5 OUTER ITERATIONS 
       AND A TOTAL OF          9 INNER ITERATIONS.
    ------------------------------------------------

 NO OUTPUT CONTROL FOR STRESS PERIOD   31   TIME STEP    4
 
 SOLVING FOR HEAD 
                                                   Max.-Head-Change                         Max.-Flux-Residual
  Residual-Control   Outer-Iter.   Inner-Iter.     Column Row Layer    Maximum-Head-Change  Column Row Layer    Maximum-Flux-Residual          L2-NORM 
          0                 1           2             4    7     1       0.6269880528E-02       4    7    1         0.3266757162E+00      0.1036099951E+01
          0                 2           2             4    7     1      -0.5477805003E-01       4    7    1        -0.2941657503E+01      0.7237515473E+01
          0                 3           2             4    7     1       0.3070053764E-01       4    7    1         0.1694782392E+01      0.4161839971E+01
          0                 4           2             4    7     1      -0.1221794204E-02       4    6    1        -0.7009353090E-01      0.1719036985E+00
          0                 5           1             7   13     1       0.2391405824E-04       7   13    1         0.1334482012E-02      0.2666748781E-02

    ------------------------------------------------
       NWT REQUIRED            5 OUTER ITERATIONS 
       AND A TOTAL OF          9 INNER ITERATIONS.
    ------------------------------------------------

 NO OUTPUT CONTROL FOR STRESS PERIOD   31   TIME STEP    5
 
 SOLVING FOR HEAD 
                                                   Max.-Head-Change                         Max.-Flux-Residual
  Residual-Control   Outer-Iter.   Inner-Iter.     Column Row Layer    Maximum-Head-Change  Column Row Layer    Maximum-Flux-Residual          L2-NORM 
          0                 1           2             4    6     1       0.6513582352E-02       4    6    1         0.3419755351E+00      0.1084692451E+01
          0                 2           2             4    7     1      -0.1532807297E-01       4    6    1        -0.8238804052E+00      0.2036720013E+01
          0                 3           2             4    7     1       0.1494821004E-01       4    6    1         0.8252547384E+00      0.2028945360E+01
          0                 4           2             4    7     1      -0.6037202321E-03       4    6    1        -0.3425894166E-01      0.8416844630E-01
          0                 5           1             4   13     1      -0.5433196176E-04       4   13    1        -0.3382113869E-02      0.5678768819E-02

    ------------------------------------------------
       NWT REQUIRED            5 OUTER ITERATIONS 
       AND A TOTAL OF          9 INNER ITERATIONS.
    ------------------------------------------------

 NO OUTPUT CONTROL FOR STRESS PERIOD   31   TIME STEP    6
 
 SOLVING FOR HEAD 
                                                   Max.-Head-Change                         Max.-Flux-Residual
  Residual-Control   Outer-Iter.   Inner-Iter.     Column Row Layer    Maximum-Head-Change  Column Row Layer    Maximum-Flux-Residual          L2-NORM 
          0                 1           2             4    6     1       0.6455468573E-02       4    6    1         0.3388706993E+00      0.1071480720E+01
          0                 2           2             4    7     1      -0.5084876655E-01       4    6    1        -0.2731171575E+01      0.6722482889E+01
          0                 3           2             4    7     1       0.3426783697E-01       5    6    1         0.1891732173E+01      0.4646927975E+01
          0                 4           2             4    7     1      -0.1363641879E-02       4    6    1        -0.7769844859E-01      0.1916826797E+00
          0                 5           1             7   13     1       0.2332020843E-04       7   13    1         0.1301781328E-02      0.2900113680E-02

    ------------------------------------------------
       NWT REQUIRED            5 OUTER ITERATIONS 
       AND A TOTAL OF          9 INNER ITERATIONS.
    ------------------------------------------------

 NO OUTPUT CONTROL FOR STRESS PERIOD   31   TIME STEP    7
 
 SOLVING FOR HEAD 
                                                   Max.-Head-Change                         Max.-Flux-Residual
  Residual-Control   Outer-Iter.   Inner-Iter.     Column Row Layer    Maximum-Head-Change  Column Row Layer    Maximum-Flux-Residual          L2-NORM 
          0                 1           2             5    6     1       0.6744127781E-02       5    6    1         0.3575261399E+00      0.1114873812E+01
          0                 2           2             4    7     1      -0.2116025473E-01       5    6    1        -0.1138158818E+01      0.2807555327E+01
          0                 3           2             4    7     1       0.2065785903E-01       5    6    1         0.1140521428E+01      0.2804106410E+01
          0                 4           2             4    6     1      -0.3479006409E-03       4    6    1        -0.2003115414E-01      0.4872423480E-01
          0                 5           1             4    7     1       0.6580581095E-04       4    6    1         0.3842763042E-02      0.1011704653E-01

    ------------------------------------------------
       NWT REQUIRED            5 OUTER ITERATIONS 
       AND A TOTAL OF          9 INNER ITERATIONS.
    ------------------------------------------------

 NO OUTPUT CONTROL FOR STRESS PERIOD   31   TIME STEP    8
 
 SOLVING FOR HEAD 
                                                   Max.-Head-Change                         Max.-Flux-Residual
  Residual-Control   Outer-Iter.   Inner-Iter.     Column Row Layer    Maximum-Head-Change  Column Row Layer    Maximum-Flux-Residual          L2-NORM 
          0                 1           2             4    6     1       0.6673085877E-02       5    6    1         0.3508098133E+00      0.1104073275E+01
          0                 2           2             4    7     1      -0.4676330728E-01       5    6    1        -0.2512471089E+01      0.6185015371E+01
          0                 3           2             4    7     1       0.3797289458E-01       5    6    1         0.2096341438E+01      0.5150822110E+01
          0                 4           2             4    7     1      -0.1511037439E-02       4    6    1        -0.8590388084E-01      0.2123726388E+00
          0                 5           1             7   13     1       0.2270686501E-04       7   13    1         0.1267996189E-02      0.3153429229E-02

    ------------------------------------------------
       NWT REQUIRED            5 OUTER ITERATIONS 
       AND A TOTAL OF          9 INNER ITERATIONS.
    ------------------------------------------------

 NO OUTPUT CONTROL FOR STRESS PERIOD   31   TIME STEP    9
 
 SOLVING FOR HEAD 
                                                   Max.-Head-Change                         Max.-Flux-Residual
  Residual-Control   Outer-Iter.   Inner-Iter.     Column Row Layer    Maximum-Head-Change  Column Row Layer    Maximum-Flux-Residual          L2-NORM 
          0                 1           2             4    6     1       0.6797481439E-02       5    6    1         0.3597719597E+00      0.1138331736E+01
          0                 2           2             4    7     1      -0.2907086008E-01       5    6    1        -0.1562952768E+01      0.3852176466E+01
          0                 3           2             4    7     1       0.2964016612E-01       5    6    1         0.1636381989E+01      0.4022084996E+01
          0                 4           2             4    7     1      -0.1179481899E-02       4    6    1        -0.6718292945E-01      0.1656245982E+00
          0                 5           1             4    7     1       0.1454349942E-04       4    6    1         0.8514134456E-03      0.2260352810E-02

    ------------------------------------------------
       NWT REQUIRED            5 OUTER ITERATIONS 
       AND A TOTAL OF          9 INNER ITERATIONS.
    ------------------------------------------------

 NO OUTPUT CONTROL FOR STRESS PERIOD   31   TIME STEP   10
 
 SOLVING FOR HEAD 
                                                   Max.-Head-Change                         Max.-Flux-Residual
  Residual-Control   Outer-Iter.   Inner-Iter.     Column Row Layer    Maximum-Head-Change  Column Row Layer    Maximum-Flux-Residual          L2-NORM 
          0                 1           2             4    6     1       0.6720192955E-02       4    6    1         0.3531943236E+00      0.1132386366E+01
          0                 2           2             4    7     1      -0.5155422103E-01       4    6    1        -0.2769752657E+01      0.6819107584E+01
          0                 3           2             4    7     1       0.3364280751E-01       5    6    1         0.1857304199E+01      0.4561927414E+01
          0                 4           2             4    7     1      -0.1338697387E-02       4    8    1        -0.7596559822E-01      0.1880097611E+00
          0                 5           1             7   13     1       0.2255252899E-04       7   13    1         0.1258945077E-02      0.2835191575E-02

    ------------------------------------------------
       NWT REQUIRED            5 OUTER ITERATIONS 
       AND A TOTAL OF          9 INNER ITERATIONS.
    ------------------------------------------------

 NO OUTPUT CONTROL FOR STRESS PERIOD   31   TIME STEP   11
 
 SOLVING FOR HEAD 
                                                   Max.-Head-Change                         Max.-Flux-Residual
  Residual-Control   Outer-Iter.   Inner-Iter.     Column Row Layer    Maximum-Head-Change  Column Row Layer    Maximum-Flux-Residual          L2-NORM 
          0                 1           2             5    6     1       0.7079917317E-02       5    6    1         0.3759305108E+00      0.1178140801E+01
          0                 2           2             4    7     1      -0.8134585644E-02       5    6    1        -0.4396906682E+00      0.1099508440E+01
          0                 3           2             4    7     1       0.7348580002E-02       5    6    1         0.4058685457E+00      0.9979190319E+00
          0                 4           2             4    7     1      -0.2041049650E-03       5    6    1        -0.1158953748E-01      0.2839102987E-01
          0                 5           1             4   13     1      -0.5348987130E-04       4   13    1        -0.3153299117E-02      0.9062216787E-02

    ------------------------------------------------
       NWT REQUIRED            5 OUTER ITERATIONS 
       AND A TOTAL OF          9 INNER ITERATIONS.
    ------------------------------------------------

 NO OUTPUT CONTROL FOR STRESS PERIOD   31   TIME STEP   12
 
 SOLVING FOR HEAD 
                                                   Max.-Head-Change                         Max.-Flux-Residual
  Residual-Control   Outer-Iter.   Inner-Iter.     Column Row Layer    Maximum-Head-Change  Column Row Layer    Maximum-Flux-Residual          L2-NORM 
          0                 1           2             5    6     1       0.6947875196E-02       5    6    1         0.3686575762E+00      0.1153011304E+01
          0                 2           2             4    7     1      -0.5259305688E-01       5    6    1        -0.2826498854E+01      0.6958163708E+01
          0                 3           2             4    7     1       0.3271392024E-01       5    6    1         0.1806080243E+01      0.4436239083E+01
          0                 4           2             4    7     1      -0.1301735057E-02       5    6    1        -0.7386908691E-01      0.1828187270E+00
          0                 5           1             7   13     1       0.2224139510E-04       7   13    1         0.1241513255E-02      0.2760959623E-02

    ------------------------------------------------
       NWT REQUIRED            5 OUTER ITERATIONS 
       AND A TOTAL OF          9 INNER ITERATIONS.
    ------------------------------------------------

 NO OUTPUT CONTROL FOR STRESS PERIOD   31   TIME STEP   13
 
 SOLVING FOR HEAD 
                                                   Max.-Head-Change                         Max.-Flux-Residual
  Residual-Control   Outer-Iter.   Inner-Iter.     Column Row Layer    Maximum-Head-Change  Column Row Layer    Maximum-Flux-Residual          L2-NORM 
          0                 1           2             5    6     1       0.7412896712E-02       5    6    1         0.3941882322E+00      0.1202107754E+01
          0                 2           2             4    7     1      -0.2131781920E-01       5    6    1        -0.1148844437E+01      0.2833469860E+01
          0                 3           2             4    7     1       0.2096179104E-01       5    6    1         0.1157451405E+01      0.2845573587E+01
          0                 4           2             4    7     1      -0.4135476703E-03       5    6    1        -0.2347695395E-01      0.5817580494E-01
          0                 5           1             4    7     1       0.4085424180E-04       5    6    1         0.2382734213E-02      0.6307491220E-02

    ------------------------------------------------
       NWT REQUIRED            5 OUTER ITERATIONS 
       AND A TOTAL OF          9 INNER ITERATIONS.
    ------------------------------------------------

 NO OUTPUT CONTROL FOR STRESS PERIOD   31   TIME STEP   14
 
 SOLVING FOR HEAD 
                                                   Max.-Head-Change                         Max.-Flux-Residual
  Residual-Control   Outer-Iter.   Inner-Iter.     Column Row Layer    Maximum-Head-Change  Column Row Layer    Maximum-Flux-Residual          L2-NORM 
          0                 1           2             5    6     1       0.7254283188E-02       5    6    1         0.3854460008E+00      0.1186664521E+01
          0                 2           2             4    7     1      -0.4757931526E-01       5    6    1        -0.2558277379E+01      0.6297642006E+01
          0                 3           2             4    7     1       0.3726168855E-01       5    6    1         0.2057205200E+01      0.5054819548E+01
          0                 4           2             4    7     1      -0.1482700238E-02       5    6    1        -0.8414020139E-01      0.2082914062E+00
          0                 5           1             7   13     1       0.2157615358E-04       7   13    1         0.1204930704E-02      0.3072926810E-02

    ------------------------------------------------
       NWT REQUIRED            5 OUTER ITERATIONS 
       AND A TOTAL OF          9 INNER ITERATIONS.
    ------------------------------------------------

 NO OUTPUT CONTROL FOR STRESS PERIOD   31   TIME STEP   15
 
 SOLVING FOR HEAD 
                                                   Max.-Head-Change                         Max.-Flux-Residual
  Residual-Control   Outer-Iter.   Inner-Iter.     Column Row Layer    Maximum-Head-Change  Column Row Layer    Maximum-Flux-Residual          L2-NORM 
          0                 1           2             5    6     1       0.7428423847E-02       5    6    1         0.3949907566E+00      0.1221321474E+01
          0                 2           2             4    7     1      -0.2302908009E-01       5    6    1        -0.1240473250E+01      0.3059382941E+01
          0                 3           2             4    7     1       0.2332349252E-01       5    6    1         0.1287807103E+01      0.3165480383E+01
          0                 4           2             4    7     1      -0.9280725097E-03       5    6    1        -0.5267153779E-01      0.1302615188E+00
          0                 5           1             4    7     1       0.1144352222E-04       5    6    1         0.6675104892E-03      0.1776348985E-02

    ------------------------------------------------
       NWT REQUIRED            5 OUTER ITERATIONS 
       AND A TOTAL OF          9 INNER ITERATIONS.
    ------------------------------------------------

 NO OUTPUT CONTROL FOR STRESS PERIOD   31   TIME STEP   16
 
 SOLVING FOR HEAD 
                                                   Max.-Head-Change                         Max.-Flux-Residual
  Residual-Control   Outer-Iter.   Inner-Iter.     Column Row Layer    Maximum-Head-Change  Column Row Layer    Maximum-Flux-Residual          L2-NORM 
          0                 1           2             5    6     1       0.7266507418E-02       5    6    1         0.3860714360E+00      0.1205767613E+01
          0                 2           2             4    7     1      -0.4799877558E-01       5    6    1        -0.2580527870E+01      0.6353280558E+01
          0                 3           2             4    7     1       0.3688833015E-01       5    6    1         0.2036574955E+01      0.5004053629E+01
          0                 4           2             4    7     1      -0.1467843504E-02       5    6    1        -0.8329641535E-01      0.2061867985E+00
          0                 5           1             7   13     1       0.2120388388E-04       7   13    1         0.1184153600E-02      0.3037625723E-02

    ------------------------------------------------
       NWT REQUIRED            5 OUTER ITERATIONS 
       AND A TOTAL OF          9 INNER ITERATIONS.
    ------------------------------------------------

 NO OUTPUT CONTROL FOR STRESS PERIOD   31   TIME STEP   17
 
 SOLVING FOR HEAD 
                                                   Max.-Head-Change                         Max.-Flux-Residual
  Residual-Control   Outer-Iter.   Inner-Iter.     Column Row Layer    Maximum-Head-Change  Column Row Layer    Maximum-Flux-Residual          L2-NORM 
          0                 1           2             5    6     1       0.7463418501E-02       5    6    1         0.3968709429E+00      0.1240701021E+01
          0                 2           2             4    7     1      -0.2210692500E-01       5    6    1        -0.1190784102E+01      0.2938032936E+01
          0                 3           2             4    7     1       0.2196659760E-01       5    6    1         0.1212889608E+01      0.2981727890E+01
          0                 4           2             4    7     1      -0.5958050048E-03       5    6    1        -0.3381740498E-01      0.8370484966E-01
          0                 5           1             4    7     1       0.6143558730E-04       5    6    1         0.3583007480E-02      0.8970528103E-02

    ------------------------------------------------
       NWT REQUIRED            5 OUTER ITERATIONS 
       AND A TOTAL OF          9 INNER ITERATIONS.
    ------------------------------------------------

 NO OUTPUT CONTROL FOR STRESS PERIOD   31   TIME STEP   18
 
 SOLVING FOR HEAD 
                                                   Max.-Head-Change                         Max.-Flux-Residual
  Residual-Control   Outer-Iter.   Inner-Iter.     Column Row Layer    Maximum-Head-Change  Column Row Layer    Maximum-Flux-Residual          L2-NORM 
          0                 1           2             5    6     1       0.7301729678E-02       5    6    1         0.3879665209E+00      0.1223292057E+01
          0                 2           2             4    7     1      -0.4748137715E-01       5    6    1        -0.2552582317E+01      0.6285156010E+01
          0                 3           2             4    7     1       0.3736276272E-01       5    6    1         0.2062753961E+01      0.5068593126E+01
          0                 4           2             4    7     1      -0.1486722199E-02       5    6    1        -0.8436714804E-01      0.2088360601E+00
          0                 5           1             7   13     1       0.2078755341E-04       7   13    1         0.1161008228E-02      0.3063376157E-02

    ------------------------------------------------
       NWT REQUIRED            5 OUTER ITERATIONS 
       AND A TOTAL OF          9 INNER ITERATIONS.
    ------------------------------------------------

 NO OUTPUT CONTROL FOR STRESS PERIOD   31   TIME STEP   19
 
 SOLVING FOR HEAD 
                                                   Max.-Head-Change                         Max.-Flux-Residual
  Residual-Control   Outer-Iter.   Inner-Iter.     Column Row Layer    Maximum-Head-Change  Column Row Layer    Maximum-Flux-Residual          L2-NORM 
          0                 1           2             5    6     1       0.7468701918E-02       4   13    1         0.3975180009E+00      0.1255937116E+01
          0                 2           2             4    7     1      -0.2308826164E-01       5    6    1        -0.1243200653E+01      0.3067514665E+01
          0                 3           2             4    7     1       0.2337306976E-01       5    6    1         0.1290512145E+01      0.3172197802E+01
          0                 4           2             4    7     1      -0.9300452731E-03       5    6    1        -0.5278217476E-01      0.1305393378E+00
          0                 5           1             4    7     1       0.1146784680E-04       5    6    1         0.6689125944E-03      0.1780578167E-02

    ------------------------------------------------
       NWT REQUIRED            5 OUTER ITERATIONS 
       AND A TOTAL OF          9 INNER ITERATIONS.
    ------------------------------------------------

 NO OUTPUT CONTROL FOR STRESS PERIOD   31   TIME STEP   20
 
 SOLVING FOR HEAD 
                                                   Max.-Head-Change                         Max.-Flux-Residual
  Residual-Control   Outer-Iter.   Inner-Iter.     Column Row Layer    Maximum-Head-Change  Column Row Layer    Maximum-Flux-Residual          L2-NORM 
          0                 1           2             5    6     1       0.7305870346E-02       4   13    1         0.3957697569E+00      0.1238142216E+01
          0                 2           2             4    7     1      -0.4763986217E-01       5    6    1        -0.2560814213E+01      0.6306138927E+01
          0                 3           2             4    7     1       0.3722478919E-01       5    6    1         0.2055117625E+01      0.5049828941E+01
          0                 4           2             4    7     1      -0.1481231935E-02       4    8    1        -0.8405518546E-01      0.2080508672E+00
          0                 5           1             7   13     1       0.2040725271E-04       7   13    1         0.1139803408E-02      0.3045200118E-02

    ------------------------------------------------
       NWT REQUIRED            5 OUTER ITERATIONS 
       AND A TOTAL OF          9 INNER ITERATIONS.
    ------------------------------------------------

 NO OUTPUT CONTROL FOR STRESS PERIOD   31   TIME STEP   21
 
 SOLVING FOR HEAD 
                                                   Max.-Head-Change                         Max.-Flux-Residual
  Residual-Control   Outer-Iter.   Inner-Iter.     Column Row Layer    Maximum-Head-Change  Column Row Layer    Maximum-Flux-Residual          L2-NORM 
          0                 1           2             5    6     1       0.7481636240E-02       4   13    1         0.4130256628E+00      0.1270392853E+01
          0                 2           2             4    7     1      -0.2270796919E-01       5    6    1        -0.1222547431E+01      0.3017411789E+01
          0                 3           2             4    7     1       0.2265302495E-01       5    6    1         0.1250746757E+01      0.3074785979E+01
          0                 4           2             4    7     1      -0.6783022013E-03       5    6    1        -0.3849700300E-01      0.9525673262E-01
          0                 5           1             4    7     1       0.6049867685E-04       5    6    1         0.3528348058E-02      0.8810539010E-02

    ------------------------------------------------
       NWT REQUIRED            5 OUTER ITERATIONS 
       AND A TOTAL OF          9 INNER ITERATIONS.
    ------------------------------------------------

 NO OUTPUT CONTROL FOR STRESS PERIOD   31   TIME STEP   22
 
 SOLVING FOR HEAD 
                                                   Max.-Head-Change                         Max.-Flux-Residual
  Residual-Control   Outer-Iter.   Inner-Iter.     Column Row Layer    Maximum-Head-Change  Column Row Layer    Maximum-Flux-Residual          L2-NORM 
          0                 1           2             4    6     1       0.7327185496E-02       4   13    1         0.4096025018E+00      0.1251434667E+01
          0                 2           2             4    7     1      -0.4742473736E-01       5    6    1        -0.2549042525E+01      0.6277755778E+01
          0                 3           2             4    7     1       0.3742470526E-01       5    6    1         0.2066138248E+01      0.5077022061E+01
          0                 4           2             4    7     1      -0.1489187029E-02       4    8    1        -0.8450629379E-01      0.2091609750E+00
          0                 5           1             7   13     1       0.2001048956E-04       7   13    1         0.1117725507E-02      0.3052340347E-02

    ------------------------------------------------
       NWT REQUIRED            5 OUTER ITERATIONS 
       AND A TOTAL OF          9 INNER ITERATIONS.
    ------------------------------------------------

 NO OUTPUT CONTROL FOR STRESS PERIOD   31   TIME STEP   23
 
 SOLVING FOR HEAD 
                                                   Max.-Head-Change                         Max.-Flux-Residual
  Residual-Control   Outer-Iter.   Inner-Iter.     Column Row Layer    Maximum-Head-Change  Column Row Layer    Maximum-Flux-Residual          L2-NORM 
          0                 1           2             5    6     1       0.7482965041E-02       4   13    1         0.4256049665E+00      0.1282331547E+01
          0                 2           2             4    7     1      -0.2292598886E-01       5    6    1        -0.1233990127E+01      0.3046125132E+01
          0                 3           2             4    7     1       0.2292847357E-01       5    6    1         0.1265933882E+01      0.3112098530E+01
          0                 4           2             4    7     1      -0.7285996851E-03       5    6    1        -0.4135023642E-01      0.1023016319E+00
          0                 5           1             4    7     1       0.6043478863E-04       5    6    1         0.3524612250E-02      0.8776034296E-02

    ------------------------------------------------
       NWT REQUIRED            5 OUTER ITERATIONS 
       AND A TOTAL OF          9 INNER ITERATIONS.
    ------------------------------------------------

 NO OUTPUT CONTROL FOR STRESS PERIOD   31   TIME STEP   24
 
 SOLVING FOR HEAD 
                                                   Max.-Head-Change                         Max.-Flux-Residual
  Residual-Control   Outer-Iter.   Inner-Iter.     Column Row Layer    Maximum-Head-Change  Column Row Layer    Maximum-Flux-Residual          L2-NORM 
          0                 1           2             4    6     1       0.7347576328E-02       4   13    1         0.4213059167E+00      0.1262659662E+01
          0                 2           2             4    7     1      -0.4736843163E-01       5    6    1        -0.2545764210E+01      0.6270265921E+01
          0                 3           2             4    7     1       0.3748035611E-01       5    6    1         0.2069192448E+01      0.5084585872E+01
          0                 4           2             4    7     1      -0.1491401497E-02       4    8    1        -0.8463158622E-01      0.2094617982E+00
          0                 5           1             7   13     1       0.1962799219E-04       7   13    1         0.1096420505E-02      0.3048824255E-02

    ------------------------------------------------
       NWT REQUIRED            5 OUTER ITERATIONS 
       AND A TOTAL OF          9 INNER ITERATIONS.
    ------------------------------------------------

 NO OUTPUT CONTROL FOR STRESS PERIOD   31   TIME STEP   25
 
 SOLVING FOR HEAD 
                                                   Max.-Head-Change                         Max.-Flux-Residual
  Residual-Control   Outer-Iter.   Inner-Iter.     Column Row Layer    Maximum-Head-Change  Column Row Layer    Maximum-Flux-Residual          L2-NORM 
          0                 1           2             4   13     1       0.7585838388E-02       4   13    1         0.4362603032E+00      0.1292722777E+01
          0                 2           2             4    7     1      -0.3859534467E-01       5    6    1        -0.2075214584E+01      0.5114744266E+01
          0                 3           2             4    7     1       0.3949963468E-01       5    6    1         0.2180704843E+01      0.5360453028E+01
          0                 4           2             4    7     1      -0.1571753033E-02       4    8    1        -0.8919211823E-01      0.2205870339E+00
          0                 5           1             4    7     1       0.1938035481E-04       4    8    1         0.1130331983E-02      0.3009773951E-02

    ------------------------------------------------
       NWT REQUIRED            5 OUTER ITERATIONS 
       AND A TOTAL OF          9 INNER ITERATIONS.
    ------------------------------------------------

 NO OUTPUT CONTROL FOR STRESS PERIOD   31   TIME STEP   26
 
 SOLVING FOR HEAD 
                                                   Max.-Head-Change                         Max.-Flux-Residual
  Residual-Control   Outer-Iter.   Inner-Iter.     Column Row Layer    Maximum-Head-Change  Column Row Layer    Maximum-Flux-Residual          L2-NORM 
          0                 1           2             4   13     1       0.7884109276E-02       4   13    1         0.4534216159E+00      0.1289733554E+01
          0                 2           2             4    7     1      -0.1817506419E-01       5    6    1        -0.9777582626E+00      0.2412371557E+01
          0                 3           2             4    7     1       0.1780827569E-01       5    6    1         0.9832033527E+00      0.2417243652E+01
          0                 4           2             4    7     1      -0.7009659416E-03       5    6    1        -0.3977924117E-01      0.9777927198E-01
          0                 5           1             4   13     1      -0.5819395944E-04       4   13    1        -0.3621507877E-02      0.6071673377E-02

    ------------------------------------------------
       NWT REQUIRED            5 OUTER ITERATIONS 
       AND A TOTAL OF          9 INNER ITERATIONS.
    ------------------------------------------------

 NO OUTPUT CONTROL FOR STRESS PERIOD   31   TIME STEP   27
 
 SOLVING FOR HEAD 
                                                   Max.-Head-Change                         Max.-Flux-Residual
  Residual-Control   Outer-Iter.   Inner-Iter.     Column Row Layer    Maximum-Head-Change  Column Row Layer    Maximum-Flux-Residual          L2-NORM 
          0                 1           2             4   13     1       0.7586724934E-02       4   13    1         0.4362140831E+00      0.1270546232E+01
          0                 2           2             4    7     1      -0.4978637328E-01       4    6    1        -0.2674844618E+01      0.6588880099E+01
          0                 3           2             4    7     1       0.3529609065E-01       4    6    1         0.1948559248E+01      0.4787445665E+01
          0                 4           2             4    7     1      -0.1404484922E-02       4    8    1        -0.7969800633E-01      0.1971918222E+00
          0                 5           1             7   13     1       0.1922278201E-04       7   13    1         0.1073617236E-02      0.2877521939E-02

    ------------------------------------------------
       NWT REQUIRED            5 OUTER ITERATIONS 
       AND A TOTAL OF          9 INNER ITERATIONS.
    ------------------------------------------------

 NO OUTPUT CONTROL FOR STRESS PERIOD   31   TIME STEP   28
 
 SOLVING FOR HEAD 
                                                   Max.-Head-Change                         Max.-Flux-Residual
  Residual-Control   Outer-Iter.   Inner-Iter.     Column Row Layer    Maximum-Head-Change  Column Row Layer    Maximum-Flux-Residual          L2-NORM 
          0                 1           2             4   13     1       0.7823219507E-02       4   13    1         0.4498425953E+00      0.1306341891E+01
          0                 2           2             4    7     1      -0.2128317397E-01       5    6    1        -0.1145184700E+01      0.2829281327E+01
          0                 3           2             4    7     1       0.2006996891E-01       5    6    1         0.1108092961E+01      0.2725294545E+01
          0                 4           2             4    7     1       0.2078530048E-03       4    7    1         0.1147458774E-01      0.2819268849E-01
          0                 5           2             4    7     1       0.2660159039E-03       5    6    1         0.1468504297E-01      0.3629890930E-01
          0                 6           1             4    7     1       0.5717056200E-04       4    7    1         0.3155939241E-02      0.7797162394E-02

    ------------------------------------------------
       NWT REQUIRED            6 OUTER ITERATIONS 
       AND A TOTAL OF         11 INNER ITERATIONS.
    ------------------------------------------------

 NO OUTPUT CONTROL FOR STRESS PERIOD   31   TIME STEP   29
 
 SOLVING FOR HEAD 
                                                   Max.-Head-Change                         Max.-Flux-Residual
  Residual-Control   Outer-Iter.   Inner-Iter.     Column Row Layer    Maximum-Head-Change  Column Row Layer    Maximum-Flux-Residual          L2-NORM 
          0                 1           2             4   13     1       0.7690514047E-02       4   13    1         0.4421319364E+00      0.1283821404E+01
          0                 2           2             4    7     1      -0.4621765098E-01       4    6    1        -0.2483419792E+01      0.6117963838E+01
          0                 3           2             4    7     1       0.3853118391E-01       4    6    1         0.2127163666E+01      0.5227498481E+01
          0                 4           2             4    7     1      -0.1533216232E-02       4    8    1        -0.8700357535E-01      0.2153314053E+00
          0                 5           1             4    7     1       0.1890518093E-04       4    8    1         0.1102596750E-02      0.3108916174E-02

    ------------------------------------------------
       NWT REQUIRED            5 OUTER ITERATIONS 
       AND A TOTAL OF          9 INNER ITERATIONS.
    ------------------------------------------------

 NO OUTPUT CONTROL FOR STRESS PERIOD   31   TIME STEP   30



 STREAM LISTING     PERIOD     31   STEP       30

 LAYER ROW COL. STREAM  RCH.  FLOW INTO     FLOW TO   FLOW OUT OF   OVRLND.     DIRECT     STREAM       STREAM     STREAM     STREAM   STREAMBED  STREAMBED
                SEG.NO.  NO.  STRM. RCH.    AQUIFER    STRM. RCH.    RUNOFF     PRECIP       ET          HEAD       DEPTH      WIDTH   CONDCTNC.   GRADIENT

   1    1    1     1     1    3.1124E+01  2.7164E-01   3.0852E+01  0.000E+00  0.000E+00  0.000E+00  1.09431E+03  1.259E+00  1.417E+01  6.378E-02  1.420E+00
   1    2    2     1     2    3.0852E+01  4.2045E-01   3.0432E+01  0.000E+00  0.000E+00  0.000E+00  1.08931E+03  1.256E+00  1.411E+01  9.879E-02  1.419E+00
   1    3    3     1     3    3.0432E+01  3.5834E-01   3.0074E+01  0.000E+00  0.000E+00  0.000E+00  1.08367E+03  1.252E+00  1.404E+01  8.427E-02  1.417E+00
   1    3    4     1     4    3.0074E+01  3.2975E-01   2.9744E+01  0.000E+00  0.000E+00  0.000E+00  1.07866E+03  1.249E+00  1.398E+01  7.761E-02  1.416E+00
   1    4    5     2     1    2.7744E+01  3.3390E-01   2.7410E+01  0.000E+00  0.000E+00  0.000E+00  1.07321E+03  1.281E+00  1.200E+01  7.800E-02  1.427E+00
   1    5    6     2     2    2.7410E+01  2.5635E-01   2.7154E+01  0.000E+00  0.000E+00  0.000E+00  1.06778E+03  1.273E+00  1.200E+01  6.000E-02  1.424E+00
   1    6    6     2     3    2.7154E+01  2.5592E-01   2.6898E+01  0.000E+00  0.000E+00  0.000E+00  1.06306E+03  1.265E+00  1.200E+01  6.000E-02  1.422E+00
   1    7    6     2     4    2.6898E+01  2.5549E-01   2.6642E+01  0.000E+00  0.000E+00  0.000E+00  1.05833E+03  1.258E+00  1.200E+01  6.000E-02  1.419E+00
   1    8    6     2     5    2.6642E+01  2.5506E-01   2.6387E+01  0.000E+00  0.000E+00  0.000E+00  1.05361E+03  1.251E+00  1.200E+01  6.000E-02  1.417E+00
   1    3    5     3     1    2.0000E+00  2.8252E-01   1.7175E+00  0.000E+00  0.000E+00  0.000E+00  1.07555E+03  1.909E+00  9.636E+00  7.227E-02  1.955E+00
   1    3    6     3     2    1.7175E+00  2.4905E-01   1.4684E+00  0.000E+00  0.000E+00  0.000E+00  1.07264E+03  1.727E+00  8.909E+00  6.682E-02  1.864E+00
   1    3    7     3     3    1.4684E+00  1.9718E-01   1.2712E+00  0.000E+00  0.000E+00  0.000E+00  1.06987E+03  1.555E+00  8.218E+00  5.547E-02  1.777E+00
   1    4    8     3     4    1.2712E+00  2.2567E-01   1.0456E+00  0.000E+00  0.000E+00  0.000E+00  1.06682E+03  1.364E+00  7.455E+00  6.709E-02  1.682E+00
   1    5    8     3     5    1.0456E+00  1.5790E-01   8.8768E-01  0.000E+00  0.000E+00  0.000E+00  1.06362E+03  1.164E+00  6.655E+00  4.991E-02  1.582E+00
   1    6    8     3     6    8.8768E-01  5.5980E-02   8.3170E-01  0.000E+00  0.000E+00  0.000E+00  1.06158E+03  1.036E+00  6.145E+00  1.844E-02  1.518E+00
   1    5   10     4     1    1.0000E+01  9.0919E-02   9.9091E+00  0.000E+00  0.000E+00  0.000E+00  1.07836E+03  6.368E-01  1.000E+01  2.500E-02  1.212E+00
   1    5    9     4     2    9.9091E+00  1.8158E-01   9.7275E+00  0.000E+00  0.000E+00  0.000E+00  1.07154E+03  6.315E-01  1.000E+01  5.000E-02  1.211E+00
   1    6    8     4     3    9.7275E+00  1.2689E-01   9.6006E+00  0.000E+00  0.000E+00  0.000E+00  1.06381E+03  6.256E-01  1.000E+01  3.500E-02  1.209E+00
   1    6    8     5     1    1.0432E+01  2.2686E-01   1.0205E+01  0.000E+00  0.000E+00  0.000E+00  1.05868E+03  6.790E-01  1.542E+01  6.166E-02  1.226E+00
   1    7    7     5     2    1.0205E+01  2.7894E-01   9.9265E+00  0.000E+00  0.000E+00  0.000E+00  1.05417E+03  6.732E-01  1.519E+01  7.594E-02  1.224E+00
   1    8    7     5     3    9.9265E+00  1.9221E-01   9.7343E+00  0.000E+00  0.000E+00  0.000E+00  1.04992E+03  6.676E-01  1.497E+01  5.241E-02  1.223E+00
   1    8    6     5     4    9.7343E+00  1.3577E-01   9.5985E+00  0.000E+00  0.000E+00  0.000E+00  1.04691E+03  6.637E-01  1.482E+01  3.706E-02  1.221E+00
   1    9    6     6     1    9.5985E+00  2.2097E-01   9.3776E+00  0.000E+00  0.000E+00  0.000E+00  1.04341E+03  6.828E-01  1.200E+01  6.000E-02  1.228E+00
   1   10    7     6     2    9.3776E+00  2.2039E-01   9.1572E+00  0.000E+00  0.000E+00  0.000E+00  1.03885E+03  6.732E-01  1.200E+01  6.000E-02  1.224E+00
   1   11    7     6     3    9.1572E+00  2.1981E-01   8.9374E+00  0.000E+00  0.000E+00  0.000E+00  1.03430E+03  6.636E-01  1.200E+01  6.000E-02  1.221E+00
   1   12    7     6     4    8.9374E+00  2.1923E-01   8.7181E+00  0.000E+00  0.000E+00  0.000E+00  1.02974E+03  6.539E-01  1.200E+01  6.000E-02  1.218E+00
   1   13    7     6     5    8.7181E+00 -1.2646E-02   8.7308E+00  0.000E+00  0.000E+00  0.000E+00  1.02656E+03  6.493E-01  1.200E+01  2.400E-01 -1.756E-02
   1   14    9     7     1    1.5000E+02  1.3838E+00   1.4862E+02  0.000E+00  0.000E+00  0.000E+00  1.03987E+03  2.288E+00  5.529E+01  5.593E-01  8.247E-01
   1   13    8     7     2    1.4862E+02  1.9841E+00   1.4663E+02  0.000E+00  0.000E+00  0.000E+00  1.03478E+03  2.279E+00  5.525E+01  6.147E-01  1.076E+00
   1   13    7     7     3    1.4663E+02  1.7181E+00   1.4491E+02  0.000E+00  0.000E+00  0.000E+00  1.02969E+03  2.269E+00  5.521E+01  5.584E-01  1.026E+00
   1   13    6     8     1    1.5364E+02  1.0683E+00   1.5258E+02  0.000E+00  0.000E+00  0.000E+00  1.02471E+03  2.839E+00  4.116E+01  4.194E-01  8.490E-01
   1   13    5     8     2    1.5258E+02  3.2458E-01   1.5225E+02  0.000E+00  0.000E+00  0.000E+00  1.01846E+03  2.834E+00  4.109E+01  4.187E-01  2.584E-01
   1   13    4     8     3    1.5225E+02 -1.9988E+00   1.5425E+02  0.000E+00  0.000E+00  0.000E+00  1.01221E+03  2.840E+00  4.117E+01  4.196E+00 -1.588E-01
   1   13    3     8     4    1.5425E+02 -3.4941E+00   1.5774E+02  0.000E+00  0.000E+00  0.000E+00  1.00598E+03  2.859E+00  4.145E+01  4.224E+00 -2.757E-01
   1   13    2     8     5    1.5774E+02 -2.6713E+00   1.6042E+02  0.000E+00  0.000E+00  0.000E+00  9.99755E+02  2.880E+00  4.175E+01  4.255E+00 -2.093E-01
   1   13    1     8     6    1.6042E+02 -2.0778E+00   1.6249E+02  0.000E+00  0.000E+00  0.000E+00  9.94771E+02  2.896E+00  4.199E+01  2.567E+00 -2.698E-01
   1    8    6     9     1    2.6387E+01  0.0000E+00   2.6387E+01  0.000E+00  0.000E+00  0.000E+00  1.08281E+03  4.056E+00  4.000E+00  0.000E+00  2.352E+00
   1    8    5     9     2    2.6387E+01  0.0000E+00   2.6387E+01  0.000E+00  0.000E+00  0.000E+00  1.08231E+03  4.056E+00  4.000E+00  0.000E+00  2.352E+00





UNSATURATED ZONE PACKAGE VOLUMETRIC BUDGET FOR  TIME STEP    30 STRESS PERIOD   31
  ------------------------------------------------------------------------------



     CUMULATIVE VOLUMES      L**3       RATES FOR THIS TIME STEP      L**3/T
     ------------------                 ------------------------

           IN:                                      IN:
           ---                                      ---
        INFILTRATION =  1391999952.1958          INFILTRATION =          33.7424

          OUT:                                     OUT:
          ----                                     ----
              UZF ET =  1130453094.9138                UZF ET =          26.6100
        UZF RECHARGE =     5053646.5752          UZF RECHARGE =       0.0000E+00

            IN - OUT =   256493210.7068              IN - OUT =           7.1324

          STORAGE:                                 STORAGE:
          --------                                 --------
      STORAGE CHANGE =   256493190.2248        STORAGE CHANGE =           7.1324

 PERCENT DISCREPANCY IS DIFFERENCE BETWEEN IN-OUT MINUS CHANGE IN STORAGE
 DIVIDED BY THE AVERAGE OF IN AND OUT TIMES 100

 PERCENT DISCREPANCY =           0.00     PERCENT DISCREPANCY =           0.00






1
  VOLUMETRIC BUDGET FOR AGRICULTURAL FIELDS AT  END OF TIME STEP   30, STRESS PERIOD  31
  ------------------------------------------------------------------------------

     CUMULATIVE VOLUMES      L**3       RATES FOR THIS TIME STEP      L**3/T
     ------------------                 ------------------------

           IN:                                      IN:
           ---                                      ---
               AG WELLS  =   606249024.0000                 AG WELLS  =           2.9473
      DIVERSION SEGMENTS =   438217120.0000        DIVERSION SEGMENTS =          26.3872
           GW IRRIGATION =           0.0000             GW IRRIGATION =           0.0000
           SW IRRIGATION =           0.0000             SW IRRIGATION =           0.0000
        SYSTEM LOSSES GW =           0.0000          SYSTEM LOSSES GW =           0.0000
        SYSTEM LOSSES SW =           0.0000          SYSTEM LOSSES SW =           0.0000

                TOTAL IN =  1044466176.0000                  TOTAL IN =          29.3344

          OUT:                                     OUT:
          ----                                     ----
               AG WELLS  =           0.0000                 AG WELLS  =           0.0000
      DIVERSION SEGMENTS =           0.0000        DIVERSION SEGMENTS =           0.0000
           GW IRRIGATION =   606249024.0000             GW IRRIGATION =           2.9473
           SW IRRIGATION =   438225600.0000             SW IRRIGATION =          26.3877
        SYSTEM LOSSES GW =           0.0000          SYSTEM LOSSES GW =           0.0000
        SYSTEM LOSSES SW =           0.0000          SYSTEM LOSSES SW =           0.0000

               TOTAL OUT =  1044474624.0000                 TOTAL OUT =          29.3349

                IN - OUT =       -8448.0000                  IN - OUT =      -5.2452E-04

     PERCENT DISCREPANCY =          -0.00         PERCENT DISCREPANCY =          -0.00



1
  VOLUMETRIC BUDGET FOR ENTIRE MODEL AT END OF TIME STEP   30, STRESS PERIOD  31
  ------------------------------------------------------------------------------

     CUMULATIVE VOLUMES      L**3       RATES FOR THIS TIME STEP      L**3/T
     ------------------                 ------------------------

           IN:                                      IN:
           ---                                      ---
             STORAGE     =   936106688.0000               STORAGE     =           3.0949
       CONSTANT HEAD     =           0.0000         CONSTANT HEAD     =           0.0000
     HEAD DEP BOUNDS     =    22767150.0000       HEAD DEP BOUNDS     =           0.2890
      STREAM LEAKAGE     =   934898816.0000        STREAM LEAKAGE     =          12.4977
        UZF RECHARGE     =     5053646.5000          UZF RECHARGE     =           0.0000
               GW ET     =           0.0000                 GW ET     =           0.0000
     SURFACE LEAKAGE     =           0.0000       SURFACE LEAKAGE     =           0.0000
           AG WELLS      =           0.0000             AG WELLS      =           0.0000

                TOTAL IN =  1898826368.0000                  TOTAL IN =          15.8816

          OUT:                                     OUT:
          ----                                     ----
             STORAGE     =   474243456.0000               STORAGE     =           2.3917
       CONSTANT HEAD     =           0.0000         CONSTANT HEAD     =           0.0000
     HEAD DEP BOUNDS     =    22746690.0000       HEAD DEP BOUNDS     =           0.2880
      STREAM LEAKAGE     =   795596416.0000        STREAM LEAKAGE     =          10.2545
        UZF RECHARGE     =           0.0000          UZF RECHARGE     =           0.0000
               GW ET     =           0.0000                 GW ET     =           0.0000
     SURFACE LEAKAGE     =           0.0000       SURFACE LEAKAGE     =           0.0000
           AG WELLS      =   606249024.0000             AG WELLS      =           2.9473

               TOTAL OUT =  1898835456.0000                 TOTAL OUT =          15.8815

                IN - OUT =       -9088.0000                  IN - OUT =       7.0572E-05

     PERCENT DISCREPANCY =          -0.00         PERCENT DISCREPANCY =           0.00






         TIME SUMMARY AT END OF TIME STEP   30 IN STRESS PERIOD   31
                    SECONDS     MINUTES      HOURS       DAYS        YEARS
                    -----------------------------------------------------------
   TIME STEP LENGTH  87667.      1461.1      24.352      1.0147     2.77799E-03
 STRESS PERIOD TIME 2.63000E+06  43833.      730.56      30.440     8.33397E-02
         TOTAL TIME 7.89864E+07 1.31644E+06  21941.      914.20      2.5029    
1
1
                            STRESS PERIOD NO.   32, LENGTH =   2630000.    
                            -----------------------------------------------

                              NUMBER OF TIME STEPS =    30

                               MULTIPLIER FOR DELT =     1.000

                            INITIAL TIME STEP SIZE =   87666.66    

 REUSING NON-PARAMETER GHB CELLS FROM LAST STRESS PERIOD

      2 GHB CELLS

 REUSING STREAM SEGMENT DATA FROM LAST STRESS PERIOD



            AREAL INFILTRATION RATE
 READING ON UNIT   19 WITH FORMAT: (10F4.0)            

            1           2           3           4           5           6           7           8           9          10
 ........................................................................................................................
   1   1.2000E-09   0.000       0.000       0.000       0.000       0.000       0.000       0.000       0.000       0.000    
   2   2.1000E-09  2.0000E-09  8.0000E-10  8.5000E-09   0.000       0.000       0.000       0.000       0.000       0.000    
   3   5.0000E-10  1.1000E-09  8.8000E-09  5.5000E-09   0.000       0.000       0.000       0.000       0.000       0.000    
   4   8.5000E-09  1.1000E-09  1.1000E-09  1.1000E-09  2.0000E-09   0.000       0.000       0.000       0.000       0.000    
   5   8.5000E-09  1.1000E-09  1.1000E-09  1.1000E-09  1.1000E-09   0.000       0.000       0.000       0.000       0.000    
   6   8.5000E-09  5.2000E-09  2.1000E-09  1.1000E-09  1.5000E-09   0.000       0.000       0.000       0.000       0.000    
   7   8.5000E-09  5.2000E-09  2.1000E-09  1.2000E-09  2.0000E-09   0.000       0.000       0.000       0.000       0.000    
   8   5.0000E-10  5.2000E-09  2.1000E-09  1.2000E-09  5.0000E-09   0.000       0.000       0.000       0.000       0.000    
   9   5.0000E-10  5.2000E-09  2.1000E-09  1.2000E-09  5.0000E-09   0.000       0.000       0.000       0.000       0.000    
  10   5.0000E-10  5.2000E-09  2.1000E-09  1.2000E-09  5.8000E-09   0.000       0.000       0.000       0.000       0.000    
  11   1.0000E-10  1.1000E-09  1.1000E-09  1.2000E-09  5.0000E-09   0.000       0.000       0.000       0.000       0.000    
  12   1.1000E-09  1.1000E-09  1.1000E-09  1.1000E-09  2.0000E-09   0.000       0.000       0.000       0.000       0.000    
  13   1.1000E-09  2.2000E-09  2.2000E-09  2.1000E-09  1.0000E-09   0.000       0.000       0.000       0.000       0.000    
  14   2.0000E-10  5.5000E-09  5.5000E-09  5.2000E-09  1.0000E-09   0.000       0.000       0.000       0.000       0.000    
  15    0.000      8.8000E-09  8.8000E-09   0.000       0.000       0.000       0.000       0.000       0.000       0.000    

                  ET RATE =  4.000000E-07

 USING ET EXTINCTION DEPTH FROM PREVIOUS STRESS PERIOD. CURRENT PERIOD IS:      32

 USING EXTINCTION WATER CONTENT FROM PREVIOUS STRESS PERIOD. CURRENT PERIOD IS:      32

 USING AIR ENTRY PRESSURE FROM PREVIOUS STRESS PERIOD. CURRENT PERIOD IS:      32

 USING ROOT PRESSURE HEAD FROM PREVIOUS STRESS PERIOD. CURRENT PERIOD IS:      32

 USING ROOT ACTIVITY FROM PREVIOUS STRESS PERIOD. CURRENT PERIOD IS:      32

 PROCESSING AG STRESS PERIOD DATA

 READING AG STRESS PERIOD DATA

 READING IRRIGATION SEGMENT

 READING IRRIGATION WELL

 READING SUPPLEMENTAL WELL

 END PROCESSING AG STRESS PERIOD DATA OPTIONS
 
 SOLVING FOR HEAD 
                                                   Max.-Head-Change                         Max.-Flux-Residual
  Residual-Control   Outer-Iter.   Inner-Iter.     Column Row Layer    Maximum-Head-Change  Column Row Layer    Maximum-Flux-Residual          L2-NORM 
          0                 1           2             4    6     1       0.7454767844E-02       4   13    1         0.3954865301E+00      0.1249748599E+01
          0                 2           2             4    7     1      -0.2119063077E+00       5    6    1        -0.1138162255E+02      0.2789642237E+02
          0                 3           2             4    7     1       0.1436215896E-01       5    6    1         0.7967011822E+00      0.1950734713E+01
          0                 4           2             4    7     1      -0.5714849900E-03       5    6    1        -0.3258518290E-01      0.7977995323E-01
          0                 5           1             4    7     1       0.7046655729E-05       5    6    1         0.4129546192E-03      0.1010934381E-02

    ------------------------------------------------
       NWT REQUIRED            5 OUTER ITERATIONS 
       AND A TOTAL OF          9 INNER ITERATIONS.
    ------------------------------------------------

 NO OUTPUT CONTROL FOR STRESS PERIOD   32   TIME STEP    1
 
 SOLVING FOR HEAD 
                                                   Max.-Head-Change                         Max.-Flux-Residual
  Residual-Control   Outer-Iter.   Inner-Iter.     Column Row Layer    Maximum-Head-Change  Column Row Layer    Maximum-Flux-Residual          L2-NORM 
          0                 1           2             5    8     1       0.1304733069E-01       5    8    1         0.7046211092E+00      0.1665643747E+01
          0                 2           2             4    7     1      -0.1334249758E+00       5    8    1        -0.7187983904E+01      0.1760883895E+02
          0                 3           2             4    7     1       0.9085009951E-02       5    6    1         0.5030601052E+00      0.1231118705E+01
          0                 4           2             4    7     1      -0.3615015597E-03       5    6    1        -0.2056713945E-01      0.5034282073E-01
          0                 5           1             4    7     1       0.4457470323E-05       5    6    1         0.2601008568E-03      0.6401220819E-03

    ------------------------------------------------
       NWT REQUIRED            5 OUTER ITERATIONS 
       AND A TOTAL OF          9 INNER ITERATIONS.
    ------------------------------------------------

 NO OUTPUT CONTROL FOR STRESS PERIOD   32   TIME STEP    2
 
 SOLVING FOR HEAD 
                                                   Max.-Head-Change                         Max.-Flux-Residual
  Residual-Control   Outer-Iter.   Inner-Iter.     Column Row Layer    Maximum-Head-Change  Column Row Layer    Maximum-Flux-Residual          L2-NORM 
          0                 1           2             5    8     1       0.1629044708E-01       5    8    1         0.8829278122E+00      0.1979457074E+01
          0                 2           2             4    7     1      -0.2964357385E+00       5    8    1        -0.1595083003E+02      0.3904274270E+02
          0                 3           2             4    7     1       0.2018565146E-01       5    6    1         0.1116309049E+01      0.2732482417E+01
          0                 4           2             4    7     1      -0.8032084559E-03       5    6    1        -0.4563939011E-01      0.1117514772E+00
          0                 5           1             4    7     1       0.9903904510E-05       4    6    1         0.5773487878E-03      0.1421152502E-02

    ------------------------------------------------
       NWT REQUIRED            5 OUTER ITERATIONS 
       AND A TOTAL OF          9 INNER ITERATIONS.
    ------------------------------------------------

 NO OUTPUT CONTROL FOR STRESS PERIOD   32   TIME STEP    3
 
 SOLVING FOR HEAD 
                                                   Max.-Head-Change                         Max.-Flux-Residual
  Residual-Control   Outer-Iter.   Inner-Iter.     Column Row Layer    Maximum-Head-Change  Column Row Layer    Maximum-Flux-Residual          L2-NORM 
          0                 1           2             5    8     1       0.2392677454E-01       5    8    1         0.1303025785E+01      0.2782177854E+01
          0                 2           2             4    7     1      -0.1152447526E+00       5    8    1        -0.6258923104E+01      0.1528882396E+02
          0                 3           2             4    7     1       0.7847684567E-02       5    8    1         0.4408105627E+00      0.1071021337E+01
          0                 4           2             4    7     1      -0.3122670611E-03       5    8    1        -0.1802516173E-01      0.4378942828E-01
          0                 5           1             4    7     1       0.3850387886E-05       5    8    1         0.2281603774E-03      0.5552108951E-03

    ------------------------------------------------
       NWT REQUIRED            5 OUTER ITERATIONS 
       AND A TOTAL OF          9 INNER ITERATIONS.
    ------------------------------------------------

 NO OUTPUT CONTROL FOR STRESS PERIOD   32   TIME STEP    4
 
 SOLVING FOR HEAD 
                                                   Max.-Head-Change                         Max.-Flux-Residual
  Residual-Control   Outer-Iter.   Inner-Iter.     Column Row Layer    Maximum-Head-Change  Column Row Layer    Maximum-Flux-Residual          L2-NORM 
          0                 1           2             5    8     1       0.2606381557E-01       5    8    1         0.1421823236E+01      0.3036736851E+01
          0                 2           2             4    7     1      -0.2968968361E+00       5    8    1        -0.1601609217E+02      0.3916011463E+02
          0                 3           2             4    7     1       0.2021708308E-01       5    8    1         0.1120916397E+01      0.2740782188E+01
          0                 4           2             4    7     1      -0.8044589467E-03       5    8    1        -0.4582758802E-01      0.1120845807E+00
          0                 5           1             4    7     1       0.9919324024E-05       5    6    1         0.5796712908E-03      0.1424075643E-02

    ------------------------------------------------
       NWT REQUIRED            5 OUTER ITERATIONS 
       AND A TOTAL OF          9 INNER ITERATIONS.
    ------------------------------------------------

 NO OUTPUT CONTROL FOR STRESS PERIOD   32   TIME STEP    5
 
 SOLVING FOR HEAD 
                                                   Max.-Head-Change                         Max.-Flux-Residual
  Residual-Control   Outer-Iter.   Inner-Iter.     Column Row Layer    Maximum-Head-Change  Column Row Layer    Maximum-Flux-Residual          L2-NORM 
          0                 1           2             5    8     1       0.3339987424E-01       5    8    1         0.1825822654E+01      0.3857555990E+01
          0                 2           2             4    7     1      -0.1154636723E+00       5    8    1        -0.6308933704E+01      0.1537088814E+02
          0                 3           2             4    7     1       0.7862583678E-02       5    8    1         0.4415884727E+00      0.1075663762E+01
          0                 4           2             4    7     1      -0.3128598671E-03       5    8    1        -0.1805777935E-01      0.4397887246E-01
          0                 5           1             4    7     1       0.3857697190E-05       5    8    1         0.2286282074E-03      0.5570277756E-03

    ------------------------------------------------
       NWT REQUIRED            5 OUTER ITERATIONS 
       AND A TOTAL OF          9 INNER ITERATIONS.
    ------------------------------------------------

 NO OUTPUT CONTROL FOR STRESS PERIOD   32   TIME STEP    6
 
 SOLVING FOR HEAD 
                                                   Max.-Head-Change                         Max.-Flux-Residual
  Residual-Control   Outer-Iter.   Inner-Iter.     Column Row Layer    Maximum-Head-Change  Column Row Layer    Maximum-Flux-Residual          L2-NORM 
          0                 1           2             5    8     1       0.3508218611E-01       5    8    1         0.1917578595E+01      0.4072547419E+01
          0                 2           2             4    7     1      -0.2971707787E+00       5    8    1        -0.1606569403E+02      0.3924446516E+02
          0                 3           2             4    7     1       0.2023575878E-01       5    8    1         0.1124408701E+01      0.2746711406E+01
          0                 4           2             4    7     1      -0.8052020275E-03       5    8    1        -0.4597238677E-01      0.1123238718E+00
          0                 5           1             4    7     1       0.9928486390E-05       5    6    1         0.5815389832E-03      0.1425878186E-02

    ------------------------------------------------
       NWT REQUIRED            5 OUTER ITERATIONS 
       AND A TOTAL OF          9 INNER ITERATIONS.
    ------------------------------------------------

 NO OUTPUT CONTROL FOR STRESS PERIOD   32   TIME STEP    7
 
 SOLVING FOR HEAD 
                                                   Max.-Head-Change                         Max.-Flux-Residual
  Residual-Control   Outer-Iter.   Inner-Iter.     Column Row Layer    Maximum-Head-Change  Column Row Layer    Maximum-Flux-Residual          L2-NORM 
          0                 1           2             5    8     1       0.4193284876E-01       5    8    1         0.2294476418E+01      0.4865364657E+01
          0                 2           2             4    7     1      -0.1157463291E+00       5    8    1        -0.6355792854E+01      0.1545294984E+02
          0                 3           2             4    7     1       0.7881834591E-02       5    8    1         0.4448875068E+00      0.1081453215E+01
          0                 4           2             4    7     1      -0.3136258634E-03       5    8    1        -0.1819454400E-01      0.4421932761E-01
          0                 5           1             4    7     1       0.3867142169E-05       5    8    1         0.2304859800E-03      0.5600659992E-03

    ------------------------------------------------
       NWT REQUIRED            5 OUTER ITERATIONS 
       AND A TOTAL OF          9 INNER ITERATIONS.
    ------------------------------------------------

 NO OUTPUT CONTROL FOR STRESS PERIOD   32   TIME STEP    8
 
 SOLVING FOR HEAD 
                                                   Max.-Head-Change                         Max.-Flux-Residual
  Residual-Control   Outer-Iter.   Inner-Iter.     Column Row Layer    Maximum-Head-Change  Column Row Layer    Maximum-Flux-Residual          L2-NORM 
          0                 1           2             5    8     1       0.4316276799E-01       5    8    1         0.2360991679E+01      0.5038721201E+01
          0                 2           2             4    7     1      -0.2974636429E+00       5    8    1        -0.1611003483E+02      0.3932330437E+02
          0                 3           2             4    7     1       0.2025570873E-01       5    8    1         0.1127530080E+01      0.2752241317E+01
          0                 4           2             4    7     1      -0.8059958191E-03       5    8    1        -0.4610175382E-01      0.1125486730E+00
          0                 5           1             4    7     1       0.9938274358E-05       5    8    1         0.5832726597E-03      0.1427902984E-02

    ------------------------------------------------
       NWT REQUIRED            5 OUTER ITERATIONS 
       AND A TOTAL OF          9 INNER ITERATIONS.
    ------------------------------------------------

 NO OUTPUT CONTROL FOR STRESS PERIOD   32   TIME STEP    9
 
 SOLVING FOR HEAD 
                                                   Max.-Head-Change                         Max.-Flux-Residual
  Residual-Control   Outer-Iter.   Inner-Iter.     Column Row Layer    Maximum-Head-Change  Column Row Layer    Maximum-Flux-Residual          L2-NORM 
          0                 1           2             5    8     1       0.4959203438E-01       5    8    1         0.2714393395E+01      0.5797247540E+01
          0                 2           2             4    8     1      -0.1162096533E+00       5    8    1        -0.6397783950E+01      0.1552986024E+02
          0                 3           2             4    8     1       0.7913386515E-02       5    8    1         0.4478410567E+00      0.1086862744E+01
          0                 4           2             4    8     1      -0.3148813376E-03       5    8    1        -0.1831671918E-01      0.4444290907E-01
          0                 5           1             4    8     1       0.3882616906E-05       5    8    1         0.2321277016E-03      0.5630248521E-03

    ------------------------------------------------
       NWT REQUIRED            5 OUTER ITERATIONS 
       AND A TOTAL OF          9 INNER ITERATIONS.
    ------------------------------------------------

 NO OUTPUT CONTROL FOR STRESS PERIOD   32   TIME STEP   10
 
 SOLVING FOR HEAD 
                                                   Max.-Head-Change                         Max.-Flux-Residual
  Residual-Control   Outer-Iter.   Inner-Iter.     Column Row Layer    Maximum-Head-Change  Column Row Layer    Maximum-Flux-Residual          L2-NORM 
          0                 1           2             5    8     1       0.5042881192E-01       5    8    1         0.2759003993E+01      0.5932273150E+01
          0                 2           2             4    7     1      -0.2977718063E+00       5    8    1        -0.1614983547E+02      0.3939716467E+02
          0                 3           2             4    7     1       0.2027669928E-01       5    8    1         0.1130331378E+01      0.2757424078E+01
          0                 4           2             4    7     1      -0.8068310231E-03       5    8    1        -0.4621780644E-01      0.1127598378E+00
          0                 5           1             4    7     1       0.9948573002E-05       5    8    1         0.5848439150E-03      0.1429925506E-02

    ------------------------------------------------
       NWT REQUIRED            5 OUTER ITERATIONS 
       AND A TOTAL OF          9 INNER ITERATIONS.
    ------------------------------------------------

 NO OUTPUT CONTROL FOR STRESS PERIOD   32   TIME STEP   11
 
 SOLVING FOR HEAD 
                                                   Max.-Head-Change                         Max.-Flux-Residual
  Residual-Control   Outer-Iter.   Inner-Iter.     Column Row Layer    Maximum-Head-Change  Column Row Layer    Maximum-Flux-Residual          L2-NORM 
          0                 1           2             5    8     1       0.5649110987E-01       5    8    1         0.3091972684E+01      0.6656974457E+01
          0                 2           2             5    6     1      -0.1168142511E+00       5    8    1        -0.6435541217E+01      0.1560201551E+02
          0                 3           2             5    6     1       0.7954559388E-02       5    8    1         0.4504843108E+00      0.1091912880E+01
          0                 4           2             5    6     1      -0.3165196353E-03       5    8    1        -0.1842485147E-01      0.4464936194E-01
          0                 5           1             5    6     1       0.3902817774E-05       5    8    1         0.2334996375E-03      0.5656184684E-03

    ------------------------------------------------
       NWT REQUIRED            5 OUTER ITERATIONS 
       AND A TOTAL OF          9 INNER ITERATIONS.
    ------------------------------------------------

 NO OUTPUT CONTROL FOR STRESS PERIOD   32   TIME STEP   12
 
 SOLVING FOR HEAD 
                                                   Max.-Head-Change                         Max.-Flux-Residual
  Residual-Control   Outer-Iter.   Inner-Iter.     Column Row Layer    Maximum-Head-Change  Column Row Layer    Maximum-Flux-Residual          L2-NORM 
          0                 1           2             5    8     1       0.5698522328E-01       5    8    1         0.3117517482E+01      0.6757587423E+01
          0                 2           2             4    7     1      -0.2980916128E+00       5    8    1        -0.1618568618E+02      0.3946646730E+02
          0                 3           2             4    7     1       0.2029848158E-01       5    8    1         0.1132854230E+01      0.2762290360E+01
          0                 4           2             4    7     1      -0.8076977371E-03       5    8    1        -0.4632227928E-01      0.1129588276E+00
          0                 5           1             4    7     1       0.9959259777E-05       5    8    1         0.5862554121E-03      0.1431970929E-02

    ------------------------------------------------
       NWT REQUIRED            5 OUTER ITERATIONS 
       AND A TOTAL OF          9 INNER ITERATIONS.
    ------------------------------------------------

 NO OUTPUT CONTROL FOR STRESS PERIOD   32   TIME STEP   13
 
 SOLVING FOR HEAD 
                                                   Max.-Head-Change                         Max.-Flux-Residual
  Residual-Control   Outer-Iter.   Inner-Iter.     Column Row Layer    Maximum-Head-Change  Column Row Layer    Maximum-Flux-Residual          L2-NORM 
          0                 1           2             5    8     1       0.6272709763E-01       5    8    1         0.3432669251E+01      0.7450690478E+01
          0                 2           2             5    6     1      -0.1174103674E+00       5    8    1        -0.6469610179E+01      0.1566979451E+02
          0                 3           2             5    6     1       0.7995153063E-02       5    8    1         0.4528691529E+00      0.1096656455E+01
          0                 4           2             5    6     1      -0.3181348940E-03       5    8    1        -0.1852239157E-01      0.4484303653E-01
          0                 5           1             5    6     1       0.3922734908E-05       5    8    1         0.2347357577E-03      0.5680013356E-03

    ------------------------------------------------
       NWT REQUIRED            5 OUTER ITERATIONS 
       AND A TOTAL OF          9 INNER ITERATIONS.
    ------------------------------------------------

 NO OUTPUT CONTROL FOR STRESS PERIOD   32   TIME STEP   14
 
 SOLVING FOR HEAD 
                                                   Max.-Head-Change                         Max.-Flux-Residual
  Residual-Control   Outer-Iter.   Inner-Iter.     Column Row Layer    Maximum-Head-Change  Column Row Layer    Maximum-Flux-Residual          L2-NORM 
          0                 1           2             5    8     1       0.6292181693E-01       5    8    1         0.3441578452E+01      0.7520624713E+01
          0                 2           2             4    7     1      -0.2984198972E+00       5    8    1        -0.1621809161E+02      0.3953159421E+02
          0                 3           2             4    7     1       0.2032084025E-01       5    8    1         0.1135134232E+01      0.2766865713E+01
          0                 4           2             4    7     1      -0.8085873902E-03       5    8    1        -0.4641665479E-01      0.1131463280E+00
          0                 5           1             4    7     1       0.9970230174E-05       5    8    1         0.5875277598E-03      0.1434006689E-02

    ------------------------------------------------
       NWT REQUIRED            5 OUTER ITERATIONS 
       AND A TOTAL OF          9 INNER ITERATIONS.
    ------------------------------------------------

 NO OUTPUT CONTROL FOR STRESS PERIOD   32   TIME STEP   15
 
 SOLVING FOR HEAD 
                                                   Max.-Head-Change                         Max.-Flux-Residual
  Residual-Control   Outer-Iter.   Inner-Iter.     Column Row Layer    Maximum-Head-Change  Column Row Layer    Maximum-Flux-Residual          L2-NORM 
          0                 1           2             5    8     1       0.6838321140E-01       5    8    1         0.3741155625E+01      0.8184767128E+01
          0                 2           2             5    6     1      -0.1179544261E+00       5    8    1        -0.6500458105E+01      0.1573354681E+02
          0                 3           2             5    6     1       0.8032201855E-02       5    8    1         0.4550285283E+00      0.1101118560E+01
          0                 4           2             5    6     1      -0.3196090978E-03       5    8    1        -0.1861071004E-01      0.4502549230E-01
          0                 5           1             5    6     1       0.3940912451E-05       5    8    1         0.2358550178E-03      0.5703414259E-03

    ------------------------------------------------
       NWT REQUIRED            5 OUTER ITERATIONS 
       AND A TOTAL OF          9 INNER ITERATIONS.
    ------------------------------------------------

 NO OUTPUT CONTROL FOR STRESS PERIOD   32   TIME STEP   16
 
 SOLVING FOR HEAD 
                                                   Max.-Head-Change                         Max.-Flux-Residual
  Residual-Control   Outer-Iter.   Inner-Iter.     Column Row Layer    Maximum-Head-Change  Column Row Layer    Maximum-Flux-Residual          L2-NORM 
          0                 1           2             5    8     1       0.6831532648E-01       5    8    1         0.3735493781E+01      0.8227383401E+01
          0                 2           2             4    7     1      -0.2987539110E+00       5    8    1        -0.1624748246E+02      0.3959288846E+02
          0                 3           2             4    7     1       0.2034358823E-01       5    8    1         0.1137201762E+01      0.2771173461E+01
          0                 4           2             4    7     1      -0.8094925376E-03       5    8    1        -0.4650219810E-01      0.1133232079E+00
          0                 5           1             4    7     1       0.9981390325E-05       5    8    1         0.5886785352E-03      0.1436022960E-02

    ------------------------------------------------
       NWT REQUIRED            5 OUTER ITERATIONS 
       AND A TOTAL OF          9 INNER ITERATIONS.
    ------------------------------------------------

 NO OUTPUT CONTROL FOR STRESS PERIOD   32   TIME STEP   17
 
 SOLVING FOR HEAD 
                                                   Max.-Head-Change                         Max.-Flux-Residual
  Residual-Control   Outer-Iter.   Inner-Iter.     Column Row Layer    Maximum-Head-Change  Column Row Layer    Maximum-Flux-Residual          L2-NORM 
          0                 1           2             5    8     1       0.7353066158E-01       5    8    1         0.4021426085E+01      0.8865155683E+01
          0                 2           2             5    6     1      -0.1184523544E+00       5    8    1        -0.6528484436E+01      0.1579359041E+02
          0                 3           2             5    6     1       0.8066109368E-02       5    8    1         0.4569903965E+00      0.1105321291E+01
          0                 4           2             5    6     1      -0.3209583078E-03       5    8    1        -0.1869095047E-01      0.4519712531E-01
          0                 5           1             5    6     1       0.3957548671E-05       5    8    1         0.2368719224E-03      0.5724355753E-03

    ------------------------------------------------
       NWT REQUIRED            5 OUTER ITERATIONS 
       AND A TOTAL OF          9 INNER ITERATIONS.
    ------------------------------------------------

 NO OUTPUT CONTROL FOR STRESS PERIOD   32   TIME STEP   18
 
 SOLVING FOR HEAD 
                                                   Max.-Head-Change                         Max.-Flux-Residual
  Residual-Control   Outer-Iter.   Inner-Iter.     Column Row Layer    Maximum-Head-Change  Column Row Layer    Maximum-Flux-Residual          L2-NORM 
          0                 1           2             5    8     1       0.7323190602E-01       5    8    1         0.4002971422E+01      0.8883432586E+01
          0                 2           2             4    7     1      -0.2990912528E+00       5    8    1        -0.1627422954E+02      0.3965066047E+02
          0                 3           2             4    7     1       0.2036656209E-01       5    8    1         0.1139082969E+01      0.2775234769E+01
          0                 4           2             4    7     1      -0.8104066770E-03       5    8    1        -0.4657999778E-01      0.1134901067E+00
          0                 5           1             4    7     1       0.9992662378E-05       5    8    1         0.5897228148E-03      0.1437914569E-02

    ------------------------------------------------
       NWT REQUIRED            5 OUTER ITERATIONS 
       AND A TOTAL OF          9 INNER ITERATIONS.
    ------------------------------------------------

 NO OUTPUT CONTROL FOR STRESS PERIOD   32   TIME STEP   19
 
 SOLVING FOR HEAD 
                                                   Max.-Head-Change                         Max.-Flux-Residual
  Residual-Control   Outer-Iter.   Inner-Iter.     Column Row Layer    Maximum-Head-Change  Column Row Layer    Maximum-Flux-Residual          L2-NORM 
          0                 1           2             5    8     1       0.7823053387E-01       5    8    1         0.4276902947E+01      0.9497254218E+01
          0                 2           2             5    6     1      -0.1189093511E+00       5    8    1        -0.6554031413E+01      0.1585021656E+02
          0                 3           2             5    6     1       0.8097229606E-02       5    8    1         0.4587787130E+00      0.1109285020E+01
          0                 4           2             5    6     1      -0.3221966088E-03       5    8    1        -0.1876409257E-01      0.4535974327E-01
          0                 5           1             5    6     1       0.3972817525E-05       5    8    1         0.2377988594E-03      0.5751498877E-03

    ------------------------------------------------
       NWT REQUIRED            5 OUTER ITERATIONS 
       AND A TOTAL OF          9 INNER ITERATIONS.
    ------------------------------------------------

 NO OUTPUT CONTROL FOR STRESS PERIOD   32   TIME STEP   20
 
 SOLVING FOR HEAD 
                                                   Max.-Head-Change                         Max.-Flux-Residual
  Residual-Control   Outer-Iter.   Inner-Iter.     Column Row Layer    Maximum-Head-Change  Column Row Layer    Maximum-Flux-Residual          L2-NORM 
          0                 1           2             5    8     1       0.7772854437E-01       5    8    1         0.4247202144E+01      0.9493813782E+01
          0                 2           2             4    7     1      -0.2994299081E+00       5    8    1        -0.1629865193E+02      0.3970519140E+02
          0                 3           2             4    7     1       0.2038962475E-01       5    8    1         0.1140800354E+01      0.2779068955E+01
          0                 4           2             4    7     1      -0.8113243532E-03       5    8    1        -0.4665099040E-01      0.1136481849E+00
          0                 5           1             4    7     1       0.1000397744E-04       5    8    1         0.5906735823E-03      0.1439920545E-02

    ------------------------------------------------
       NWT REQUIRED            5 OUTER ITERATIONS 
       AND A TOTAL OF          9 INNER ITERATIONS.
    ------------------------------------------------

 NO OUTPUT CONTROL FOR STRESS PERIOD   32   TIME STEP   21
 
 SOLVING FOR HEAD 
                                                   Max.-Head-Change                         Max.-Flux-Residual
  Residual-Control   Outer-Iter.   Inner-Iter.     Column Row Layer    Maximum-Head-Change  Column Row Layer    Maximum-Flux-Residual          L2-NORM 
          0                 1           2             5    8     1       0.8253591803E-01       5    8    1         0.4510556742E+01      0.1008586467E+02
          0                 2           2             5    6     1      -0.1193299112E+00       5    8    1        -0.6577396096E+01      0.1590369035E+02
          0                 3           2             5    6     1       0.8125868662E-02       5    8    1         0.4604142712E+00      0.1113028309E+01
          0                 4           2             5    6     1      -0.3233361817E-03       5    8    1        -0.1883098688E-01      0.4551224970E-01
          0                 5           1             5    6     1       0.3986868890E-05       5    8    1         0.2386466272E-03      0.5764529436E-03

    ------------------------------------------------
       NWT REQUIRED            5 OUTER ITERATIONS 
       AND A TOTAL OF          9 INNER ITERATIONS.
    ------------------------------------------------

 NO OUTPUT CONTROL FOR STRESS PERIOD   32   TIME STEP   22
 
 SOLVING FOR HEAD 
                                                   Max.-Head-Change                         Max.-Flux-Residual
  Residual-Control   Outer-Iter.   Inner-Iter.     Column Row Layer    Maximum-Head-Change  Column Row Layer    Maximum-Flux-Residual          L2-NORM 
          0                 1           2             5    8     1       0.8185404284E-01       5    8    1         0.4470915292E+01      0.1006299626E+02
          0                 2           2             4    7     1      -0.2997681049E+00       5    8    1        -0.1632102258E+02      0.3975673382E+02
          0                 3           2             4    7     1       0.2041265564E-01       5    8    1         0.1142373165E+01      0.2782692948E+01
          0                 4           2             4    7     1      -0.8122407685E-03       5    8    1        -0.4671597697E-01      0.1137974646E+00
          0                 5           1             4    7     1       0.1001527728E-04       5    8    1         0.5915419188E-03      0.1441772170E-02

    ------------------------------------------------
       NWT REQUIRED            5 OUTER ITERATIONS 
       AND A TOTAL OF          9 INNER ITERATIONS.
    ------------------------------------------------

 NO OUTPUT CONTROL FOR STRESS PERIOD   32   TIME STEP   23
 
 SOLVING FOR HEAD 
                                                   Max.-Head-Change                         Max.-Flux-Residual
  Residual-Control   Outer-Iter.   Inner-Iter.     Column Row Layer    Maximum-Head-Change  Column Row Layer    Maximum-Flux-Residual          L2-NORM 
          0                 1           2             5    8     1       0.8649222959E-01       5    8    1         0.4724925685E+01      0.1063523816E+02
          0                 2           2             5    6     1      -0.1197179679E+00       5    8    1        -0.6598832310E+01      0.1595425264E+02
          0                 3           2             5    6     1       0.8152294359E-02       5    8    1         0.4619148380E+00      0.1116568279E+01
          0                 4           2             5    6     1      -0.3243876822E-03       5    8    1        -0.1889235999E-01      0.4565711211E-01
          0                 5           1             5    6     1       0.3999834159E-05       5    8    1         0.2394244179E-03      0.5783132566E-03

    ------------------------------------------------
       NWT REQUIRED            5 OUTER ITERATIONS 
       AND A TOTAL OF          9 INNER ITERATIONS.
    ------------------------------------------------

 NO OUTPUT CONTROL FOR STRESS PERIOD   32   TIME STEP   24
 
 SOLVING FOR HEAD 
                                                   Max.-Head-Change                         Max.-Flux-Residual
  Residual-Control   Outer-Iter.   Inner-Iter.     Column Row Layer    Maximum-Head-Change  Column Row Layer    Maximum-Flux-Residual          L2-NORM 
          0                 1           2             5    8     1       0.8565112537E-01       5    8    1         0.4676496923E+01      0.1059497276E+02
          0                 2           2             4    7     1      -0.3001043859E+00       5    8    1        -0.1634158009E+02      0.3980551832E+02
          0                 3           2             4    7     1       0.2043555558E-01       5    8    1         0.1143818223E+01      0.2786122566E+01
          0                 4           2             4    7     1      -0.8131519764E-03       5    8    1        -0.4677565728E-01      0.1139388754E+00
          0                 5           1             4    7     1       0.1002651315E-04       5    8    1         0.5923374983E-03      0.1443525632E-02

    ------------------------------------------------
       NWT REQUIRED            5 OUTER ITERATIONS 
       AND A TOTAL OF          9 INNER ITERATIONS.
    ------------------------------------------------

 NO OUTPUT CONTROL FOR STRESS PERIOD   32   TIME STEP   25
 
 SOLVING FOR HEAD 
                                                   Max.-Head-Change                         Max.-Flux-Residual
  Residual-Control   Outer-Iter.   Inner-Iter.     Column Row Layer    Maximum-Head-Change  Column Row Layer    Maximum-Flux-Residual          L2-NORM 
          0                 1           2             5    8     1       0.9013901135E-01       5    8    1         0.4922217285E+01      0.1114914100E+02
          0                 2           2             5    6     1      -0.1200769609E+00       5    8    1        -0.6618560810E+01      0.1600211712E+02
          0                 3           2             5    6     1       0.8176740923E-02       5    8    1         0.4632958655E+00      0.1119919086E+01
          0                 4           2             5    6     1      -0.3253604316E-03       5    8    1        -0.1894884395E-01      0.4579404741E-01
          0                 5           1             5    6     1       0.4011828596E-05       5    8    1         0.2401402276E-03      0.5800300715E-03

    ------------------------------------------------
       NWT REQUIRED            5 OUTER ITERATIONS 
       AND A TOTAL OF          9 INNER ITERATIONS.
    ------------------------------------------------

 NO OUTPUT CONTROL FOR STRESS PERIOD   32   TIME STEP   26
 
 SOLVING FOR HEAD 
                                                   Max.-Head-Change                         Max.-Flux-Residual
  Residual-Control   Outer-Iter.   Inner-Iter.     Column Row Layer    Maximum-Head-Change  Column Row Layer    Maximum-Flux-Residual          L2-NORM 
          0                 1           2             5    8     1       0.8915651678E-01       5    8    1         0.4865997184E+01      0.1109331608E+02
          0                 2           2             4    7     1      -0.3004375217E+00       5    8    1        -0.1636052949E+02      0.3985175172E+02
          0                 3           2             4    7     1       0.2045824094E-01       5    8    1         0.1145149982E+01      0.2789372059E+01
          0                 4           2             4    7     1      -0.8140546474E-03       5    8    1        -0.4683063276E-01      0.1140728260E+00
          0                 5           1             4    7     1       0.1003764350E-04       5    8    1         0.5930686307E-03      0.1445229562E-02

    ------------------------------------------------
       NWT REQUIRED            5 OUTER ITERATIONS 
       AND A TOTAL OF          9 INNER ITERATIONS.
    ------------------------------------------------

 NO OUTPUT CONTROL FOR STRESS PERIOD   32   TIME STEP   27
 
 SOLVING FOR HEAD 
                                                   Max.-Head-Change                         Max.-Flux-Residual
  Residual-Control   Outer-Iter.   Inner-Iter.     Column Row Layer    Maximum-Head-Change  Column Row Layer    Maximum-Flux-Residual          L2-NORM 
          0                 1           2             5    8     1       0.9351066209E-01       5    8    1         0.5104351347E+01      0.1163112358E+02
          0                 2           2             5    6     1      -0.1204099214E+00       5    8    1        -0.6636773577E+01      0.1604750192E+02
          0                 3           2             5    6     1       0.8199414764E-02       5    8    1         0.4645707923E+00      0.1123096782E+01
          0                 4           2             5    6     1      -0.3262626429E-03       5    8    1        -0.1900098838E-01      0.4592403020E-01
          0                 5           1             5    6     1       0.4022953349E-05       5    8    1         0.2408010655E-03      0.5816985996E-03

    ------------------------------------------------
       NWT REQUIRED            5 OUTER ITERATIONS 
       AND A TOTAL OF          9 INNER ITERATIONS.
    ------------------------------------------------

 NO OUTPUT CONTROL FOR STRESS PERIOD   32   TIME STEP   28
 
 SOLVING FOR HEAD 
                                                   Max.-Head-Change                         Max.-Flux-Residual
  Residual-Control   Outer-Iter.   Inner-Iter.     Column Row Layer    Maximum-Head-Change  Column Row Layer    Maximum-Flux-Residual          L2-NORM 
          0                 1           2             5    8     1       0.9240208559E-01       5    8    1         0.5041192449E+01      0.1156128965E+02
          0                 2           2             4    7     1      -0.3007664530E+00       5    8    1        -0.1637804840E+02      0.3989562134E+02
          0                 3           2             4    7     1       0.2048063962E-01       5    8    1         0.1146380969E+01      0.2792454736E+01
          0                 4           2             4    7     1      -0.8149459140E-03       5    8    1        -0.4688142459E-01      0.1141998127E+00
          0                 5           1             4    7     1       0.1004863305E-04       5    8    1         0.5937425203E-03      0.1446839472E-02

    ------------------------------------------------
       NWT REQUIRED            5 OUTER ITERATIONS 
       AND A TOTAL OF          9 INNER ITERATIONS.
    ------------------------------------------------

 NO OUTPUT CONTROL FOR STRESS PERIOD   32   TIME STEP   29
 
 SOLVING FOR HEAD 
                                                   Max.-Head-Change                         Max.-Flux-Residual
  Residual-Control   Outer-Iter.   Inner-Iter.     Column Row Layer    Maximum-Head-Change  Column Row Layer    Maximum-Flux-Residual          L2-NORM 
          0                 1           2             5    8     1       0.9663686113E-01       5    8    1         0.5272980430E+01      0.1208395453E+02
          0                 2           2             5    6     1      -0.1207195016E+00       5    8    1        -0.6653635869E+01      0.1609056983E+02
          0                 3           2             5    6     1       0.8220496481E-02       5    8    1         0.4657511857E+00      0.1126112256E+01
          0                 4           2             5    6     1      -0.3271015017E-03       5    8    1        -0.1904926640E-01      0.4604737330E-01
          0                 5           1             5    6     1       0.4033296351E-05       5    8    1         0.2414129094E-03      0.5831660128E-03

    ------------------------------------------------
       NWT REQUIRED            5 OUTER ITERATIONS 
       AND A TOTAL OF          9 INNER ITERATIONS.
    ------------------------------------------------

 NO OUTPUT CONTROL FOR STRESS PERIOD   32   TIME STEP   30



 STREAM LISTING     PERIOD     32   STEP       30

 LAYER ROW COL. STREAM  RCH.  FLOW INTO     FLOW TO   FLOW OUT OF   OVRLND.     DIRECT     STREAM       STREAM     STREAM     STREAM   STREAMBED  STREAMBED
                SEG.NO.  NO.  STRM. RCH.    AQUIFER    STRM. RCH.    RUNOFF     PRECIP       ET          HEAD       DEPTH      WIDTH   CONDCTNC.   GRADIENT

   1    1    1     1     1    2.8124E+01  2.5914E-01   2.7865E+01  0.000E+00  0.000E+00  0.000E+00  1.09427E+03  1.223E+00  1.364E+01  6.136E-02  1.408E+00
   1    2    2     1     2    2.7865E+01  4.0087E-01   2.7464E+01  0.000E+00  0.000E+00  0.000E+00  1.08928E+03  1.218E+00  1.358E+01  9.503E-02  1.406E+00
   1    3    3     1     3    2.7464E+01  3.4142E-01   2.7123E+01  0.000E+00  0.000E+00  0.000E+00  1.08363E+03  1.213E+00  1.351E+01  8.103E-02  1.404E+00
   1    3    4     1     4    2.7123E+01  3.1402E-01   2.6809E+01  0.000E+00  0.000E+00  0.000E+00  1.07862E+03  1.209E+00  1.344E+01  7.461E-02  1.403E+00
   1    4    5     2     1    2.4809E+01  3.2738E-01   2.4481E+01  0.000E+00  0.000E+00  0.000E+00  1.07313E+03  1.197E+00  1.200E+01  7.800E-02  1.399E+00
   1    5    6     2     2    2.4481E+01  2.5133E-01   2.4230E+01  0.000E+00  0.000E+00  0.000E+00  1.06770E+03  1.189E+00  1.200E+01  6.000E-02  1.396E+00
   1    6    6     2     3    2.4230E+01  2.5089E-01   2.3979E+01  0.000E+00  0.000E+00  0.000E+00  1.06297E+03  1.181E+00  1.200E+01  6.000E-02  1.394E+00
   1    7    6     2     4    2.3979E+01  2.5044E-01   2.3729E+01  0.000E+00  0.000E+00  0.000E+00  1.05825E+03  1.174E+00  1.200E+01  6.000E-02  1.391E+00
   1    8    6     2     5    2.3729E+01  2.5000E-01   2.3479E+01  0.000E+00  0.000E+00  0.000E+00  1.05353E+03  1.167E+00  1.200E+01  6.000E-02  1.389E+00
   1    3    5     3     1    2.0000E+00  2.8252E-01   1.7175E+00  0.000E+00  0.000E+00  0.000E+00  1.07555E+03  1.909E+00  9.636E+00  7.227E-02  1.955E+00
   1    3    6     3     2    1.7175E+00  2.4905E-01   1.4684E+00  0.000E+00  0.000E+00  0.000E+00  1.07264E+03  1.727E+00  8.909E+00  6.682E-02  1.864E+00
   1    3    7     3     3    1.4684E+00  1.9718E-01   1.2712E+00  0.000E+00  0.000E+00  0.000E+00  1.06987E+03  1.555E+00  8.218E+00  5.547E-02  1.777E+00
   1    4    8     3     4    1.2712E+00  2.2567E-01   1.0456E+00  0.000E+00  0.000E+00  0.000E+00  1.06682E+03  1.364E+00  7.455E+00  6.709E-02  1.682E+00
   1    5    8     3     5    1.0456E+00  1.5790E-01   8.8768E-01  0.000E+00  0.000E+00  0.000E+00  1.06362E+03  1.164E+00  6.655E+00  4.991E-02  1.582E+00
   1    6    8     3     6    8.8768E-01  5.5980E-02   8.3170E-01  0.000E+00  0.000E+00  0.000E+00  1.06158E+03  1.036E+00  6.145E+00  1.844E-02  1.518E+00
   1    5   10     4     1    1.0000E+01  9.0919E-02   9.9091E+00  0.000E+00  0.000E+00  0.000E+00  1.07836E+03  6.368E-01  1.000E+01  2.500E-02  1.212E+00
   1    5    9     4     2    9.9091E+00  1.8158E-01   9.7275E+00  0.000E+00  0.000E+00  0.000E+00  1.07154E+03  6.315E-01  1.000E+01  5.000E-02  1.211E+00
   1    6    8     4     3    9.7275E+00  1.2689E-01   9.6006E+00  0.000E+00  0.000E+00  0.000E+00  1.06381E+03  6.256E-01  1.000E+01  3.500E-02  1.209E+00
   1    6    8     5     1    1.0432E+01  2.2686E-01   1.0205E+01  0.000E+00  0.000E+00  0.000E+00  1.05868E+03  6.790E-01  1.542E+01  6.166E-02  1.226E+00
   1    7    7     5     2    1.0205E+01  2.7894E-01   9.9265E+00  0.000E+00  0.000E+00  0.000E+00  1.05417E+03  6.732E-01  1.519E+01  7.594E-02  1.224E+00
   1    8    7     5     3    9.9265E+00  1.9221E-01   9.7343E+00  0.000E+00  0.000E+00  0.000E+00  1.04992E+03  6.676E-01  1.497E+01  5.241E-02  1.223E+00
   1    8    6     5     4    9.7343E+00  1.3577E-01   9.5985E+00  0.000E+00  0.000E+00  0.000E+00  1.04691E+03  6.637E-01  1.482E+01  3.706E-02  1.221E+00
   1    9    6     6     1    9.5985E+00  2.2097E-01   9.3776E+00  0.000E+00  0.000E+00  0.000E+00  1.04341E+03  6.828E-01  1.200E+01  6.000E-02  1.228E+00
   1   10    7     6     2    9.3776E+00  2.2039E-01   9.1572E+00  0.000E+00  0.000E+00  0.000E+00  1.03885E+03  6.732E-01  1.200E+01  6.000E-02  1.224E+00
   1   11    7     6     3    9.1572E+00  2.1981E-01   8.9374E+00  0.000E+00  0.000E+00  0.000E+00  1.03430E+03  6.636E-01  1.200E+01  6.000E-02  1.221E+00
   1   12    7     6     4    8.9374E+00  2.1923E-01   8.7181E+00  0.000E+00  0.000E+00  0.000E+00  1.02974E+03  6.539E-01  1.200E+01  6.000E-02  1.218E+00
   1   13    7     6     5    8.7181E+00 -8.4982E-03   8.7266E+00  0.000E+00  0.000E+00  0.000E+00  1.02656E+03  6.492E-01  1.200E+01  2.400E-01 -1.180E-02
   1   14    9     7     1    1.5000E+02  1.3850E+00   1.4861E+02  0.000E+00  0.000E+00  0.000E+00  1.03987E+03  2.288E+00  5.529E+01  5.593E-01  8.255E-01
   1   13    8     7     2    1.4861E+02  1.9885E+00   1.4663E+02  0.000E+00  0.000E+00  0.000E+00  1.03478E+03  2.279E+00  5.525E+01  6.147E-01  1.078E+00
   1   13    7     7     3    1.4663E+02  1.7278E+00   1.4490E+02  0.000E+00  0.000E+00  0.000E+00  1.02969E+03  2.269E+00  5.521E+01  5.584E-01  1.031E+00
   1   13    6     8     1    1.5363E+02  1.0806E+00   1.5254E+02  0.000E+00  0.000E+00  0.000E+00  1.02471E+03  2.838E+00  4.116E+01  4.194E-01  8.588E-01
   1   13    5     8     2    1.5254E+02  3.3647E-01   1.5221E+02  0.000E+00  0.000E+00  0.000E+00  1.01846E+03  2.833E+00  4.109E+01  4.187E-01  2.679E-01
   1   13    4     8     3    1.5221E+02 -1.8652E+00   1.5407E+02  0.000E+00  0.000E+00  0.000E+00  1.01221E+03  2.839E+00  4.116E+01  4.195E+00 -1.482E-01
   1   13    3     8     4    1.5407E+02 -3.3660E+00   1.5744E+02  0.000E+00  0.000E+00  0.000E+00  1.00598E+03  2.857E+00  4.143E+01  4.221E+00 -2.658E-01
   1   13    2     8     5    1.5744E+02 -2.5279E+00   1.5997E+02  0.000E+00  0.000E+00  0.000E+00  9.99752E+02  2.877E+00  4.172E+01  4.251E+00 -1.982E-01
   1   13    1     8     6    1.5997E+02 -1.9913E+00   1.6196E+02  0.000E+00  0.000E+00  0.000E+00  9.94767E+02  2.892E+00  4.194E+01  2.564E+00 -2.589E-01
   1    8    6     9     1    2.3479E+01  0.0000E+00   2.3479E+01  0.000E+00  0.000E+00  0.000E+00  1.08253E+03  3.782E+00  4.000E+00  0.000E+00  2.261E+00
   1    8    5     9     2    2.3479E+01  0.0000E+00   2.3479E+01  0.000E+00  0.000E+00  0.000E+00  1.08203E+03  3.782E+00  4.000E+00  0.000E+00  2.261E+00





UNSATURATED ZONE PACKAGE VOLUMETRIC BUDGET FOR  TIME STEP    30 STRESS PERIOD   32
  ------------------------------------------------------------------------------



     CUMULATIVE VOLUMES      L**3       RATES FOR THIS TIME STEP      L**3/T
     ------------------                 ------------------------

           IN:                                      IN:
           ---                                      ---
        INFILTRATION =  1637096248.2134          INFILTRATION =          64.6447

          OUT:                                     OUT:
          ----                                     ----
              UZF ET =  1299055811.9939                UZF ET =          64.1075
        UZF RECHARGE =     5053646.5752          UZF RECHARGE =       0.0000E+00

            IN - OUT =   332986789.6443              IN - OUT =           0.5372

          STORAGE:                                 STORAGE:
          --------                                 --------
      STORAGE CHANGE =   332986764.0120        STORAGE CHANGE =           0.5372

 PERCENT DISCREPANCY IS DIFFERENCE BETWEEN IN-OUT MINUS CHANGE IN STORAGE
 DIVIDED BY THE AVERAGE OF IN AND OUT TIMES 100

 PERCENT DISCREPANCY =           0.00     PERCENT DISCREPANCY =           0.00






1
  VOLUMETRIC BUDGET FOR AGRICULTURAL FIELDS AT  END OF TIME STEP   30, STRESS PERIOD  32
  ------------------------------------------------------------------------------

     CUMULATIVE VOLUMES      L**3       RATES FOR THIS TIME STEP      L**3/T
     ------------------                 ------------------------

           IN:                                      IN:
           ---                                      ---
               AG WELLS  =   777964288.0000                 AG WELLS  =          36.7581
      DIVERSION SEGMENTS =   500005600.0000        DIVERSION SEGMENTS =          23.4787
           GW IRRIGATION =           0.0000             GW IRRIGATION =           0.0000
           SW IRRIGATION =           0.0000             SW IRRIGATION =           0.0000
        SYSTEM LOSSES GW =           0.0000          SYSTEM LOSSES GW =           0.0000
        SYSTEM LOSSES SW =           0.0000          SYSTEM LOSSES SW =           0.0000

                TOTAL IN =  1277969920.0000                  TOTAL IN =          60.2367

          OUT:                                     OUT:
          ----                                     ----
               AG WELLS  =           0.0000                 AG WELLS  =           0.0000
      DIVERSION SEGMENTS =           0.0000        DIVERSION SEGMENTS =           0.0000
           GW IRRIGATION =   777964288.0000             GW IRRIGATION =          36.7581
           SW IRRIGATION =   500015072.0000             SW IRRIGATION =          23.4791
        SYSTEM LOSSES GW =           0.0000          SYSTEM LOSSES GW =           0.0000
        SYSTEM LOSSES SW =           0.0000          SYSTEM LOSSES SW =           0.0000

               TOTAL OUT =  1277979392.0000                 TOTAL OUT =          60.2372

                IN - OUT =       -9472.0000                  IN - OUT =      -4.6921E-04

     PERCENT DISCREPANCY =          -0.00         PERCENT DISCREPANCY =          -0.00



1
  VOLUMETRIC BUDGET FOR ENTIRE MODEL AT END OF TIME STEP   30, STRESS PERIOD  32
  ------------------------------------------------------------------------------

     CUMULATIVE VOLUMES      L**3       RATES FOR THIS TIME STEP      L**3/T
     ------------------                 ------------------------

           IN:                                      IN:
           ---                                      ---
             STORAGE     =  1102665216.0000               STORAGE     =          34.2952
       CONSTANT HEAD     =           0.0000         CONSTANT HEAD     =           0.0000
     HEAD DEP BOUNDS     =    23527396.0000       HEAD DEP BOUNDS     =           0.2891
      STREAM LEAKAGE     =   967585920.0000        STREAM LEAKAGE     =          12.4457
        UZF RECHARGE     =     5053646.5000          UZF RECHARGE     =           0.0000
               GW ET     =           0.0000                 GW ET     =           0.0000
     SURFACE LEAKAGE     =           0.0000       SURFACE LEAKAGE     =           0.0000
           AG WELLS      =           0.0000             AG WELLS      =           0.0000

                TOTAL IN =  2098832256.0000                  TOTAL IN =          47.0300

          OUT:                                     OUT:
          ----                                     ----
             STORAGE     =   475686528.0000               STORAGE     =           0.2264
       CONSTANT HEAD     =           0.0000         CONSTANT HEAD     =           0.0000
     HEAD DEP BOUNDS     =    23501996.0000       HEAD DEP BOUNDS     =           0.2867
      STREAM LEAKAGE     =   821688704.0000        STREAM LEAKAGE     =           9.7588
        UZF RECHARGE     =           0.0000          UZF RECHARGE     =           0.0000
               GW ET     =           0.0000                 GW ET     =           0.0000
     SURFACE LEAKAGE     =           0.0000       SURFACE LEAKAGE     =           0.0000
           AG WELLS      =   777964288.0000             AG WELLS      =          36.7581

               TOTAL OUT =  2098841472.0000                 TOTAL OUT =          47.0300

                IN - OUT =       -9216.0000                  IN - OUT =       2.6703E-05

     PERCENT DISCREPANCY =          -0.00         PERCENT DISCREPANCY =           0.00






         TIME SUMMARY AT END OF TIME STEP   30 IN STRESS PERIOD   32
                    SECONDS     MINUTES      HOURS       DAYS        YEARS
                    -----------------------------------------------------------
   TIME STEP LENGTH  87667.      1461.1      24.352      1.0147     2.77799E-03
 STRESS PERIOD TIME 2.63000E+06  43833.      730.56      30.440     8.33397E-02
         TOTAL TIME 8.16164E+07 1.36027E+06  22671.      944.63      2.5863    
1
1
                            STRESS PERIOD NO.   33, LENGTH =   2630000.    
                            -----------------------------------------------

                              NUMBER OF TIME STEPS =    30

                               MULTIPLIER FOR DELT =     1.000

                            INITIAL TIME STEP SIZE =   87666.66    

 REUSING NON-PARAMETER GHB CELLS FROM LAST STRESS PERIOD

      2 GHB CELLS

 REUSING STREAM SEGMENT DATA FROM LAST STRESS PERIOD



            AREAL INFILTRATION RATE
 READING ON UNIT   19 WITH FORMAT: (10F4.0)            

            1           2           3           4           5           6           7           8           9          10
 ........................................................................................................................
   1   1.2000E-09   0.000       0.000       0.000       0.000       0.000       0.000       0.000       0.000       0.000    
   2   2.1000E-09  2.0000E-09  8.0000E-10  8.5000E-09   0.000       0.000       0.000       0.000       0.000       0.000    
   3   5.0000E-10  1.1000E-09  8.8000E-09  5.5000E-09   0.000       0.000       0.000       0.000       0.000       0.000    
   4   8.5000E-09  1.1000E-09  1.1000E-09  1.1000E-09  2.0000E-09   0.000       0.000       0.000       0.000       0.000    
   5   8.5000E-09  1.1000E-09  1.1000E-09  1.1000E-09  1.1000E-09   0.000       0.000       0.000       0.000       0.000    
   6   8.5000E-09  5.2000E-09  2.1000E-09  1.1000E-09  1.5000E-09   0.000       0.000       0.000       0.000       0.000    
   7   8.5000E-09  5.2000E-09  2.1000E-09  1.2000E-09  2.0000E-09   0.000       0.000       0.000       0.000       0.000    
   8   5.0000E-10  5.2000E-09  2.1000E-09  1.2000E-09  5.0000E-09   0.000       0.000       0.000       0.000       0.000    
   9   5.0000E-10  5.2000E-09  2.1000E-09  1.2000E-09  5.0000E-09   0.000       0.000       0.000       0.000       0.000    
  10   5.0000E-10  5.2000E-09  2.1000E-09  1.2000E-09  5.8000E-09   0.000       0.000       0.000       0.000       0.000    
  11   1.0000E-10  1.1000E-09  1.1000E-09  1.2000E-09  5.0000E-09   0.000       0.000       0.000       0.000       0.000    
  12   1.1000E-09  1.1000E-09  1.1000E-09  1.1000E-09  2.0000E-09   0.000       0.000       0.000       0.000       0.000    
  13   1.1000E-09  2.2000E-09  2.2000E-09  2.1000E-09  1.0000E-09   0.000       0.000       0.000       0.000       0.000    
  14   2.0000E-10  5.5000E-09  5.5000E-09  5.2000E-09  1.0000E-09   0.000       0.000       0.000       0.000       0.000    
  15    0.000      8.8000E-09  8.8000E-09   0.000       0.000       0.000       0.000       0.000       0.000       0.000    

                  ET RATE =  3.250000E-07

 USING ET EXTINCTION DEPTH FROM PREVIOUS STRESS PERIOD. CURRENT PERIOD IS:      33

 USING EXTINCTION WATER CONTENT FROM PREVIOUS STRESS PERIOD. CURRENT PERIOD IS:      33

 USING AIR ENTRY PRESSURE FROM PREVIOUS STRESS PERIOD. CURRENT PERIOD IS:      33

 USING ROOT PRESSURE HEAD FROM PREVIOUS STRESS PERIOD. CURRENT PERIOD IS:      33

 USING ROOT ACTIVITY FROM PREVIOUS STRESS PERIOD. CURRENT PERIOD IS:      33

 PROCESSING AG STRESS PERIOD DATA

 READING AG STRESS PERIOD DATA

 READING IRRIGATION SEGMENT

 READING IRRIGATION WELL

 READING SUPPLEMENTAL WELL

 END PROCESSING AG STRESS PERIOD DATA OPTIONS
 
 SOLVING FOR HEAD 
                                                   Max.-Head-Change                         Max.-Flux-Residual
  Residual-Control   Outer-Iter.   Inner-Iter.     Column Row Layer    Maximum-Head-Change  Column Row Layer    Maximum-Flux-Residual          L2-NORM 
          0                 1           2             5    8     1       0.9541563945E-01       5    8    1         0.5203636696E+01      0.1200091585E+02
          0                 2           2             4    7     1      -0.2319422481E+00       5    8    1        -0.1268326890E+02      0.3085223089E+02
          0                 3           2             4    7     1       0.1579415801E-01       5    8    1         0.8878080553E+00      0.2159502384E+01
          0                 4           2             4    7     1      -0.6284655108E-03       5    8    1        -0.3631076267E-01      0.8831794740E-01
          0                 5           1             4    7     1       0.7749250080E-05       5    8    1         0.4601215146E-03      0.1119073037E-02

    ------------------------------------------------
       NWT REQUIRED            5 OUTER ITERATIONS 
       AND A TOTAL OF          9 INNER ITERATIONS.
    ------------------------------------------------

 NO OUTPUT CONTROL FOR STRESS PERIOD   33   TIME STEP    1
 
 SOLVING FOR HEAD 
                                                   Max.-Head-Change                         Max.-Flux-Residual
  Residual-Control   Outer-Iter.   Inner-Iter.     Column Row Layer    Maximum-Head-Change  Column Row Layer    Maximum-Flux-Residual          L2-NORM 
          0                 1           2             5    8     1       0.9754419016E-01       5    8    1         0.5319379189E+01      0.1227980230E+02
          0                 2           2             5    8     1      -0.4056143423E-01       5    8    1        -0.2242707950E+01      0.5311461508E+01
          0                 3           2             4    7     1       0.2571234190E-01       5    8    1         0.1435155923E+01      0.3511299657E+01
          0                 4           2             4    7     1      -0.2402885515E-02       5    8    1        -0.1369314513E+00      0.3354322181E+00
          0                 5           2             4    7     1      -0.1379412521E-02       4    7    1        -0.7821996555E-01      0.1915896750E+00
          0                 6           2             4    7     1      -0.1271016124E-02       5    8    1        -0.7207345883E-01      0.1765420658E+00
          0                 7           2             4    7     1      -0.1004372825E-02       5    8    1        -0.5695283887E-01      0.1395044338E+00
          0                 8           1             4    7     1       0.1241366176E-04       4    7    1         0.7234079653E-03      0.1772148654E-02

    ------------------------------------------------
       NWT REQUIRED            8 OUTER ITERATIONS 
       AND A TOTAL OF         15 INNER ITERATIONS.
    ------------------------------------------------

 NO OUTPUT CONTROL FOR STRESS PERIOD   33   TIME STEP    2
 
 SOLVING FOR HEAD 
                                                   Max.-Head-Change                         Max.-Flux-Residual
  Residual-Control   Outer-Iter.   Inner-Iter.     Column Row Layer    Maximum-Head-Change  Column Row Layer    Maximum-Flux-Residual          L2-NORM 
          0                 1           2             5    8     1       0.9342627136E-01       5    8    1         0.5090330345E+01      0.1187344246E+02
          0                 2           2             5    7     1      -0.1751075495E+00       5    8    1        -0.9601794812E+01      0.2332862002E+02
          0                 3           2             5    7     1       0.1192403821E-01       5    8    1         0.6721182518E+00      0.1632888491E+01
          0                 4           2             5    7     1      -0.4744692865E-03       5    8    1        -0.2748971039E-01      0.6678082908E-01
          0                 5           1             5    7     1       0.5850418717E-05       5    8    1         0.3483792984E-03      0.8461570593E-03

    ------------------------------------------------
       NWT REQUIRED            5 OUTER ITERATIONS 
       AND A TOTAL OF          9 INNER ITERATIONS.
    ------------------------------------------------

 NO OUTPUT CONTROL FOR STRESS PERIOD   33   TIME STEP    3
 
 SOLVING FOR HEAD 
                                                   Max.-Head-Change                         Max.-Flux-Residual
  Residual-Control   Outer-Iter.   Inner-Iter.     Column Row Layer    Maximum-Head-Change  Column Row Layer    Maximum-Flux-Residual          L2-NORM 
          0                 1           2             5    8     1       0.9408067935E-01       5    8    1         0.5124840018E+01      0.1198827447E+02
          0                 2           2             5    8     1      -0.4945322950E-01       5    8    1        -0.2731354297E+01      0.6537099037E+01
          0                 3           2             4    7     1       0.1857395493E-01       5    8    1         0.1039280385E+01      0.2536770268E+01
          0                 4           2             4    7     1      -0.7390767672E-03       5    8    1        -0.4250411929E-01      0.1044238926E+00
          0                 5           1             4    7     1       0.9113134320E-05       5    8    1         0.5384817541E-03      0.1387035047E-02

    ------------------------------------------------
       NWT REQUIRED            5 OUTER ITERATIONS 
       AND A TOTAL OF          9 INNER ITERATIONS.
    ------------------------------------------------

 NO OUTPUT CONTROL FOR STRESS PERIOD   33   TIME STEP    4
 
 SOLVING FOR HEAD 
                                                   Max.-Head-Change                         Max.-Flux-Residual
  Residual-Control   Outer-Iter.   Inner-Iter.     Column Row Layer    Maximum-Head-Change  Column Row Layer    Maximum-Flux-Residual          L2-NORM 
          0                 1           2             5    8     1       0.9057062591E-01       5    8    1         0.4929611888E+01      0.1164387830E+02
          0                 2           2             4    7     1      -0.1849019153E+00       5    8    1        -0.1010941555E+02      0.2459849584E+02
          0                 3           2             4    7     1       0.1259097851E-01       5    8    1         0.7076508748E+00      0.1721782063E+01
          0                 4           2             4    7     1      -0.5010075588E-03       5    8    1        -0.2894300061E-01      0.7041684653E-01
          0                 5           1             4    7     1       0.6177639368E-05       5    8    1         0.3667969563E-03      0.8922757914E-03

    ------------------------------------------------
       NWT REQUIRED            5 OUTER ITERATIONS 
       AND A TOTAL OF          9 INNER ITERATIONS.
    ------------------------------------------------

 NO OUTPUT CONTROL FOR STRESS PERIOD   33   TIME STEP    5
 
 SOLVING FOR HEAD 
                                                   Max.-Head-Change                         Max.-Flux-Residual
  Residual-Control   Outer-Iter.   Inner-Iter.     Column Row Layer    Maximum-Head-Change  Column Row Layer    Maximum-Flux-Residual          L2-NORM 
          0                 1           2             5    8     1       0.9172552852E-01       5    8    1         0.4991985765E+01      0.1180529231E+02
          0                 2           2             5    6     1      -0.4783338160E-01       5    8    1        -0.2640878512E+01      0.6339068890E+01
          0                 3           2             4    7     1       0.1987930218E-01       5    8    1         0.1109664378E+01      0.2711866518E+01
          0                 4           2             4    7     1      -0.7910180536E-03       5    8    1        -0.4538130889E-01      0.1116168761E+00
          0                 5           1             4    7     1       0.9753592138E-05       5    8    1         0.5748405106E-03      0.1488677386E-02

    ------------------------------------------------
       NWT REQUIRED            5 OUTER ITERATIONS 
       AND A TOTAL OF          9 INNER ITERATIONS.
    ------------------------------------------------

 NO OUTPUT CONTROL FOR STRESS PERIOD   33   TIME STEP    6
 
 SOLVING FOR HEAD 
                                                   Max.-Head-Change                         Max.-Flux-Residual
  Residual-Control   Outer-Iter.   Inner-Iter.     Column Row Layer    Maximum-Head-Change  Column Row Layer    Maximum-Flux-Residual          L2-NORM 
          0                 1           2             5    8     1       0.8833364038E-01       5    8    1         0.4803068559E+01      0.1146874551E+02
          0                 2           2             4    7     1      -0.1822256277E+00       5    8    1        -0.9944235022E+01      0.2421669988E+02
          0                 3           2             4    7     1       0.1240873504E-01       5    8    1         0.6960876465E+00      0.1695054710E+01
          0                 4           2             4    7     1      -0.4937559123E-03       5    8    1        -0.2846997403E-01      0.6932355692E-01
          0                 5           1             4    7     1       0.6088223301E-05       5    8    1         0.3607962612E-03      0.8784215447E-03

    ------------------------------------------------
       NWT REQUIRED            5 OUTER ITERATIONS 
       AND A TOTAL OF          9 INNER ITERATIONS.
    ------------------------------------------------

 NO OUTPUT CONTROL FOR STRESS PERIOD   33   TIME STEP    7
 
 SOLVING FOR HEAD 
                                                   Max.-Head-Change                         Max.-Flux-Residual
  Residual-Control   Outer-Iter.   Inner-Iter.     Column Row Layer    Maximum-Head-Change  Column Row Layer    Maximum-Flux-Residual          L2-NORM 
          0                 1           2             5    8     1       0.8959060851E-01       5    8    1         0.4871278045E+01      0.1163327645E+02
          0                 2           2             5    6     1      -0.4804369386E-01       5    8    1        -0.2651322621E+01      0.6383290425E+01
          0                 3           2             4    7     1       0.1951834130E-01       5    8    1         0.1088354740E+01      0.2660805590E+01
          0                 4           2             4    7     1      -0.7766550284E-03       5    8    1        -0.4450949555E-01      0.1095025611E+00
          0                 5           1             4    7     1       0.9576490409E-05       5    8    1         0.5637754089E-03      0.1460378433E-02

    ------------------------------------------------
       NWT REQUIRED            5 OUTER ITERATIONS 
       AND A TOTAL OF          9 INNER ITERATIONS.
    ------------------------------------------------

 NO OUTPUT CONTROL FOR STRESS PERIOD   33   TIME STEP    8
 
 SOLVING FOR HEAD 
                                                   Max.-Head-Change                         Max.-Flux-Residual
  Residual-Control   Outer-Iter.   Inner-Iter.     Column Row Layer    Maximum-Head-Change  Column Row Layer    Maximum-Flux-Residual          L2-NORM 
          0                 1           2             5    8     1       0.8637967685E-01       5    8    1         0.4693043484E+01      0.1131458999E+02
          0                 2           2             4    7     1      -0.1831992291E+00       5    8    1        -0.9977583357E+01      0.2431761464E+02
          0                 3           2             4    7     1       0.1247502890E-01       5    8    1         0.6984176708E+00      0.1702117649E+01
          0                 4           2             4    7     1      -0.4963938299E-03       5    8    1        -0.2856485275E-01      0.6961244284E-01
          0                 5           1             4    7     1       0.6120750057E-05       5    8    1         0.3619701665E-03      0.8821082709E-03

    ------------------------------------------------
       NWT REQUIRED            5 OUTER ITERATIONS 
       AND A TOTAL OF          9 INNER ITERATIONS.
    ------------------------------------------------

 NO OUTPUT CONTROL FOR STRESS PERIOD   33   TIME STEP    9
 
 SOLVING FOR HEAD 
                                                   Max.-Head-Change                         Max.-Flux-Residual
  Residual-Control   Outer-Iter.   Inner-Iter.     Column Row Layer    Maximum-Head-Change  Column Row Layer    Maximum-Flux-Residual          L2-NORM 
          0                 1           2             5    8     1       0.8781120925E-01       5    8    1         0.4771042238E+01      0.1149194147E+02
          0                 2           2             5    6     1      -0.4776711118E-01       5    8    1        -0.2634865286E+01      0.6359618954E+01
          0                 3           2             4    7     1       0.1963633607E-01       5    8    1         0.1093636700E+01      0.2675073525E+01
          0                 4           2             4    7     1      -0.7813501968E-03       5    8    1        -0.4472500881E-01      0.1100767125E+00
          0                 5           1             4    7     1       0.9634383373E-05       5    8    1         0.5664713158E-03      0.1468283058E-02

    ------------------------------------------------
       NWT REQUIRED            5 OUTER ITERATIONS 
       AND A TOTAL OF          9 INNER ITERATIONS.
    ------------------------------------------------

 NO OUTPUT CONTROL FOR STRESS PERIOD   33   TIME STEP   10
 
 SOLVING FOR HEAD 
                                                   Max.-Head-Change                         Max.-Flux-Residual
  Residual-Control   Outer-Iter.   Inner-Iter.     Column Row Layer    Maximum-Head-Change  Column Row Layer    Maximum-Flux-Residual          L2-NORM 
          0                 1           2             5    8     1       0.8473150358E-01       5    8    1         0.4600190945E+01      0.1118542670E+02
          0                 2           2             4    7     1      -0.1830907614E+00       5    8    1        -0.9955396036E+01      0.2427973395E+02
          0                 3           2             4    7     1       0.1246764026E-01       5    8    1         0.6968613198E+00      0.1699463338E+01
          0                 4           2             4    7     1      -0.4960998400E-03       5    8    1        -0.2850087796E-01      0.6950359432E-01
          0                 5           1             4    7     1       0.6117124921E-05       5    6    1         0.3611439138E-03      0.8807233645E-03

    ------------------------------------------------
       NWT REQUIRED            5 OUTER ITERATIONS 
       AND A TOTAL OF          9 INNER ITERATIONS.
    ------------------------------------------------

 NO OUTPUT CONTROL FOR STRESS PERIOD   33   TIME STEP   11
 
 SOLVING FOR HEAD 
                                                   Max.-Head-Change                         Max.-Flux-Residual
  Residual-Control   Outer-Iter.   Inner-Iter.     Column Row Layer    Maximum-Head-Change  Column Row Layer    Maximum-Flux-Residual          L2-NORM 
          0                 1           2             5    8     1       0.8628401411E-01       5    8    1         0.4684992801E+01      0.1137047042E+02
          0                 2           2             5    6     1      -0.4766297750E-01       5    8    1        -0.2628130211E+01      0.6357457423E+01
          0                 3           2             4    7     1       0.1961333379E-01       5    8    1         0.1091295571E+01      0.2670392585E+01
          0                 4           2             4    7     1      -0.7804349282E-03       5    8    1        -0.4462889437E-01      0.1098709459E+00
          0                 5           1             4    7     1       0.9623097878E-05       5    6    1         0.5652359823E-03      0.1465255254E-02

    ------------------------------------------------
       NWT REQUIRED            5 OUTER ITERATIONS 
       AND A TOTAL OF          9 INNER ITERATIONS.
    ------------------------------------------------

 NO OUTPUT CONTROL FOR STRESS PERIOD   33   TIME STEP   12
 
 SOLVING FOR HEAD 
                                                   Max.-Head-Change                         Max.-Flux-Residual
  Residual-Control   Outer-Iter.   Inner-Iter.     Column Row Layer    Maximum-Head-Change  Column Row Layer    Maximum-Flux-Residual          L2-NORM 
          0                 1           2             5    8     1       0.8332533734E-01       5    8    1         0.4520936207E+01      0.1107540405E+02
          0                 2           2             4    7     1      -0.1832960964E+00       5    8    1        -0.9951224399E+01      0.2428361109E+02
          0                 3           2             4    7     1       0.1248161971E-01       5    8    1         0.6965663552E+00      0.1699732474E+01
          0                 4           2             4    7     1      -0.4966561106E-03       5    8    1        -0.2848852621E-01      0.6951457390E-01
          0                 5           1             4    7     1       0.6123983925E-05       5    6    1         0.3610103790E-03      0.8810344097E-03

    ------------------------------------------------
       NWT REQUIRED            5 OUTER ITERATIONS 
       AND A TOTAL OF          9 INNER ITERATIONS.
    ------------------------------------------------

 NO OUTPUT CONTROL FOR STRESS PERIOD   33   TIME STEP   13
 
 SOLVING FOR HEAD 
                                                   Max.-Head-Change                         Max.-Flux-Residual
  Residual-Control   Outer-Iter.   Inner-Iter.     Column Row Layer    Maximum-Head-Change  Column Row Layer    Maximum-Flux-Residual          L2-NORM 
          0                 1           2             5    8     1       0.8499042676E-01       5    8    1         0.4612027220E+01      0.1126778247E+02
          0                 2           2             5    6     1      -0.4753499373E-01       5    8    1        -0.2620289510E+01      0.6350517978E+01
          0                 3           2             4    7     1       0.1963027436E-01       5    8    1         0.1091290917E+01      0.2671309405E+01
          0                 4           2             4    7     1      -0.7811090293E-03       5    8    1        -0.4462836187E-01      0.1098974052E+00
          0                 5           1             4    7     1       0.9631409491E-05       5    6    1         0.5652260093E-03      0.1465299080E-02

    ------------------------------------------------
       NWT REQUIRED            5 OUTER ITERATIONS 
       AND A TOTAL OF          9 INNER ITERATIONS.
    ------------------------------------------------

 NO OUTPUT CONTROL FOR STRESS PERIOD   33   TIME STEP   14
 
 SOLVING FOR HEAD 
                                                   Max.-Head-Change                         Max.-Flux-Residual
  Residual-Control   Outer-Iter.   Inner-Iter.     Column Row Layer    Maximum-Head-Change  Column Row Layer    Maximum-Flux-Residual          L2-NORM 
          0                 1           2             5    6     1       0.8216284067E-01       5    8    1         0.4453679274E+01      0.1098241012E+02
          0                 2           2             4    7     1      -0.1833629525E+00       5    8    1        -0.9943406900E+01      0.2427655066E+02
          0                 3           2             4    7     1       0.1248617057E-01       5    8    1         0.6960164339E+00      0.1699233997E+01
          0                 4           2             4    7     1      -0.4968372020E-03       5    8    1        -0.2846576987E-01      0.6949366129E-01
          0                 5           1             4    7     1       0.6126216605E-05       5    6    1         0.3607161161E-03      0.8805676376E-03

    ------------------------------------------------
       NWT REQUIRED            5 OUTER ITERATIONS 
       AND A TOTAL OF          9 INNER ITERATIONS.
    ------------------------------------------------

 NO OUTPUT CONTROL FOR STRESS PERIOD   33   TIME STEP   15
 
 SOLVING FOR HEAD 
                                                   Max.-Head-Change                         Max.-Flux-Residual
  Residual-Control   Outer-Iter.   Inner-Iter.     Column Row Layer    Maximum-Head-Change  Column Row Layer    Maximum-Flux-Residual          L2-NORM 
          0                 1           2             5    8     1       0.8389251327E-01       5    8    1         0.4550043300E+01      0.1118061632E+02
          0                 2           2             5    6     1      -0.4743668231E-01       5    8    1        -0.2614249581E+01      0.6346249339E+01
          0                 3           2             4    7     1       0.1963426088E-01       5    8    1         0.1090709815E+01      0.2670673667E+01
          0                 4           2             4    7     1      -0.7812676716E-03       5    8    1        -0.4460430225E-01      0.1098589018E+00
          0                 5           1             4    7     1       0.9633365494E-05       5    6    1         0.5649159907E-03      0.1465217227E-02

    ------------------------------------------------
       NWT REQUIRED            5 OUTER ITERATIONS 
       AND A TOTAL OF          9 INNER ITERATIONS.
    ------------------------------------------------

 NO OUTPUT CONTROL FOR STRESS PERIOD   33   TIME STEP   16
 
 SOLVING FOR HEAD 
                                                   Max.-Head-Change                         Max.-Flux-Residual
  Residual-Control   Outer-Iter.   Inner-Iter.     Column Row Layer    Maximum-Head-Change  Column Row Layer    Maximum-Flux-Residual          L2-NORM 
          0                 1           2             5    6     1       0.8120052102E-01       5    8    1         0.4396627838E+01      0.1090371327E+02
          0                 2           2             4    7     1      -0.1834613970E+00       5    8    1        -0.9938019471E+01      0.2427372882E+02
          0                 3           2             4    7     1       0.1249287229E-01       5    8    1         0.6956352506E+00      0.1699030736E+01
          0                 4           2             4    7     1      -0.4971038794E-03       5    6    1        -0.2844980136E-01      0.6948477514E-01
          0                 5           1             4    7     1       0.6129505136E-05       5    6    1         0.3605002303E-03      0.8804256923E-03

    ------------------------------------------------
       NWT REQUIRED            5 OUTER ITERATIONS 
       AND A TOTAL OF          9 INNER ITERATIONS.
    ------------------------------------------------

 NO OUTPUT CONTROL FOR STRESS PERIOD   33   TIME STEP   17
 
 SOLVING FOR HEAD 
                                                   Max.-Head-Change                         Max.-Flux-Residual
  Residual-Control   Outer-Iter.   Inner-Iter.     Column Row Layer    Maximum-Head-Change  Column Row Layer    Maximum-Flux-Residual          L2-NORM 
          0                 1           2             5    8     1       0.8296385680E-01       5    8    1         0.4497550802E+01      0.1110682806E+02
          0                 2           2             5    6     1      -0.4734943998E-01       5    8    1        -0.2608954695E+01      0.6342316039E+01
          0                 3           2             4    7     1       0.1964104357E-01       5    8    1         0.1090385190E+01      0.2670557727E+01
          0                 4           2             4    7     1      -0.7815375756E-03       5    8    1        -0.4459076517E-01      0.1098430612E+00
          0                 5           1             4    7     1       0.9636693679E-05       5    6    1         0.5647374664E-03      0.1464889950E-02

    ------------------------------------------------
       NWT REQUIRED            5 OUTER ITERATIONS 
       AND A TOTAL OF          9 INNER ITERATIONS.
    ------------------------------------------------

 NO OUTPUT CONTROL FOR STRESS PERIOD   33   TIME STEP   18
 
 SOLVING FOR HEAD 
                                                   Max.-Head-Change                         Max.-Flux-Residual
  Residual-Control   Outer-Iter.   Inner-Iter.     Column Row Layer    Maximum-Head-Change  Column Row Layer    Maximum-Flux-Residual          L2-NORM 
          0                 1           2             5    6     1       0.8037949209E-01       5    8    1         0.4348362568E+01      0.1083724079E+02
          0                 2           2             4    7     1      -0.1835432428E+00       5    8    1        -0.9933100568E+01      0.2427059304E+02
          0                 3           2             4    7     1       0.1249844394E-01       5    8    1         0.6952873306E+00      0.1698806435E+01
          0                 4           2             4    7     1      -0.4973255886E-03       5    6    1        -0.2843584659E-01      0.6947519914E-01
          0                 5           1             4    7     1       0.6132238746E-05       5    6    1         0.3603015293E-03      0.8802697843E-03

    ------------------------------------------------
       NWT REQUIRED            5 OUTER ITERATIONS 
       AND A TOTAL OF          9 INNER ITERATIONS.
    ------------------------------------------------

 NO OUTPUT CONTROL FOR STRESS PERIOD   33   TIME STEP   19
 
 SOLVING FOR HEAD 
                                                   Max.-Head-Change                         Max.-Flux-Residual
  Residual-Control   Outer-Iter.   Inner-Iter.     Column Row Layer    Maximum-Head-Change  Column Row Layer    Maximum-Flux-Residual          L2-NORM 
          0                 1           2             5    8     1       0.8218026938E-01       5    8    1         0.4453187568E+01      0.1104451836E+02
          0                 2           2             5    7     1      -0.4728510675E-01       5    8    1        -0.2604531853E+01      0.6339252572E+01
          0                 3           2             4    7     1       0.1964624802E-01       5    8    1         0.1090062241E+01      0.2670350329E+01
          0                 4           2             4    7     1      -0.7817446778E-03       5    8    1        -0.4457732696E-01      0.1098240161E+00
          0                 5           1             4    7     1       0.9639247281E-05       5    6    1         0.5645590654E-03      0.1464420754E-02

    ------------------------------------------------
       NWT REQUIRED            5 OUTER ITERATIONS 
       AND A TOTAL OF          9 INNER ITERATIONS.
    ------------------------------------------------

 NO OUTPUT CONTROL FOR STRESS PERIOD   33   TIME STEP   20
 
 SOLVING FOR HEAD 
                                                   Max.-Head-Change                         Max.-Flux-Residual
  Residual-Control   Outer-Iter.   Inner-Iter.     Column Row Layer    Maximum-Head-Change  Column Row Layer    Maximum-Flux-Residual          L2-NORM 
          0                 1           2             5    6     1       0.7968100742E-01       5    8    1         0.4307646115E+01      0.1078142042E+02
          0                 2           2             4    7     1      -0.1836193710E+00       5    8    1        -0.9929055746E+01      0.2426836219E+02
          0                 3           2             4    7     1       0.1250362642E-01       5    8    1         0.6950009992E+00      0.1698646110E+01
          0                 4           2             4    7     1      -0.4975318123E-03       5    6    1        -0.2842423773E-01      0.6946825801E-01
          0                 5           1             4    7     1       0.6134781483E-05       5    6    1         0.3601348512E-03      0.8801973558E-03

    ------------------------------------------------
       NWT REQUIRED            5 OUTER ITERATIONS 
       AND A TOTAL OF          9 INNER ITERATIONS.
    ------------------------------------------------

 NO OUTPUT CONTROL FOR STRESS PERIOD   33   TIME STEP   21
 
 SOLVING FOR HEAD 
                                                   Max.-Head-Change                         Max.-Flux-Residual
  Residual-Control   Outer-Iter.   Inner-Iter.     Column Row Layer    Maximum-Head-Change  Column Row Layer    Maximum-Flux-Residual          L2-NORM 
          0                 1           2             5    6     1       0.8153110745E-01       5    8    1         0.4415838971E+01      0.1099222145E+02
          0                 2           2             5    7     1      -0.4728172553E-01       5    8    1        -0.2600793062E+01      0.6336782318E+01
          0                 3           2             4    7     1       0.1965123475E-01       5    8    1         0.1089804461E+01      0.2670219514E+01
          0                 4           2             4    7     1      -0.7819431155E-03       5    8    1        -0.4456657922E-01      0.1098110158E+00
          0                 5           1             4    7     1       0.9641694245E-05       5    6    1         0.5644139151E-03      0.1465973679E-02

    ------------------------------------------------
       NWT REQUIRED            5 OUTER ITERATIONS 
       AND A TOTAL OF          9 INNER ITERATIONS.
    ------------------------------------------------

 NO OUTPUT CONTROL FOR STRESS PERIOD   33   TIME STEP   22
 
 SOLVING FOR HEAD 
                                                   Max.-Head-Change                         Max.-Flux-Residual
  Residual-Control   Outer-Iter.   Inner-Iter.     Column Row Layer    Maximum-Head-Change  Column Row Layer    Maximum-Flux-Residual          L2-NORM 
          0                 1           2             5    6     1       0.7908934040E-01       5    8    1         0.4273431925E+01      0.1073482304E+02
          0                 2           2             4    7     1      -0.1836878367E+00       5    8    1        -0.9925626810E+01      0.2426658338E+02
          0                 3           2             4    7     1       0.1250828729E-01       5    6    1         0.6947615895E+00      0.1698520150E+01
          0                 4           2             4    7     1      -0.4977172787E-03       5    6    1        -0.2841427681E-01      0.6946308167E-01
          0                 5           1             4    7     1       0.6137068378E-05       5    6    1         0.3599910992E-03      0.8801827112E-03

    ------------------------------------------------
       NWT REQUIRED            5 OUTER ITERATIONS 
       AND A TOTAL OF          9 INNER ITERATIONS.
    ------------------------------------------------

 NO OUTPUT CONTROL FOR STRESS PERIOD   33   TIME STEP   23
 
 SOLVING FOR HEAD 
                                                   Max.-Head-Change                         Max.-Flux-Residual
  Residual-Control   Outer-Iter.   Inner-Iter.     Column Row Layer    Maximum-Head-Change  Column Row Layer    Maximum-Flux-Residual          L2-NORM 
          0                 1           2             5    6     1       0.8098727223E-01       5    8    1         0.4384511866E+01      0.1094858805E+02
          0                 2           2             5    7     1      -0.4727986227E-01       5    8    1        -0.2597661656E+01      0.6334880422E+01
          0                 3           2             4    7     1       0.1965568797E-01       5    8    1         0.1089584189E+01      0.2670114639E+01
          0                 4           2             4    7     1      -0.7821203232E-03       5    8    1        -0.4455738738E-01      0.1097971344E+00
          0                 5           1             4    7     1       0.9643879319E-05       5    6    1         0.5642879996E-03      0.1465448142E-02

    ------------------------------------------------
       NWT REQUIRED            5 OUTER ITERATIONS 
       AND A TOTAL OF          9 INNER ITERATIONS.
    ------------------------------------------------

 NO OUTPUT CONTROL FOR STRESS PERIOD   33   TIME STEP   24
 
 SOLVING FOR HEAD 
                                                   Max.-Head-Change                         Max.-Flux-Residual
  Residual-Control   Outer-Iter.   Inner-Iter.     Column Row Layer    Maximum-Head-Change  Column Row Layer    Maximum-Flux-Residual          L2-NORM 
          0                 1           2             5    6     1       0.7859048668E-01       5    8    1         0.4244812397E+01      0.1069620620E+02
          0                 2           2             4    7     1      -0.1837502805E+00       5    8    1        -0.9922766870E+01      0.2426529762E+02
          0                 3           2             4    7     1       0.1251253823E-01       5    6    1         0.6945614738E+00      0.1698426189E+01
          0                 4           2             4    7     1      -0.4978864341E-03       5    6    1        -0.2840585978E-01      0.6945890422E-01
          0                 5           1             4    7     1       0.6139154318E-05       5    6    1         0.3598686503E-03      0.8801189586E-03

    ------------------------------------------------
       NWT REQUIRED            5 OUTER ITERATIONS 
       AND A TOTAL OF          9 INNER ITERATIONS.
    ------------------------------------------------

 NO OUTPUT CONTROL FOR STRESS PERIOD   33   TIME STEP   25
 
 SOLVING FOR HEAD 
                                                   Max.-Head-Change                         Max.-Flux-Residual
  Residual-Control   Outer-Iter.   Inner-Iter.     Column Row Layer    Maximum-Head-Change  Column Row Layer    Maximum-Flux-Residual          L2-NORM 
          0                 1           2             5    6     1       0.8053001076E-01       5    8    1         0.4358393474E+01      0.1091248255E+02
          0                 2           2             5    7     1      -0.4727942322E-01       5    8    1        -0.2595049685E+01      0.6333461223E+01
          0                 3           2             4    7     1       0.1965976360E-01       5    8    1         0.1089401470E+01      0.2670042920E+01
          0                 4           2             4    7     1      -0.7822825050E-03       5    8    1        -0.4454975004E-01      0.1097850200E+00
          0                 5           1             4    7     1       0.9645879008E-05       5    6    1         0.5641815228E-03      0.1465003475E-02

    ------------------------------------------------
       NWT REQUIRED            5 OUTER ITERATIONS 
       AND A TOTAL OF          9 INNER ITERATIONS.
    ------------------------------------------------

 NO OUTPUT CONTROL FOR STRESS PERIOD   33   TIME STEP   26
 
 SOLVING FOR HEAD 
                                                   Max.-Head-Change                         Max.-Flux-Residual
  Residual-Control   Outer-Iter.   Inner-Iter.     Column Row Layer    Maximum-Head-Change  Column Row Layer    Maximum-Flux-Residual          L2-NORM 
          0                 1           2             5    6     1       0.7817240597E-01       5    8    1         0.4221029479E+01      0.1066452745E+02
          0                 2           2             4    7     1      -0.1838072325E+00       5    8    1        -0.9920388677E+01      0.2426442066E+02
          0                 3           2             4    7     1       0.1251641534E-01       5    6    1         0.6943929324E+00      0.1698360965E+01
          0                 4           2             4    7     1      -0.4980407129E-03       5    6    1        -0.2839875665E-01      0.6945586973E-01
          0                 5           1             4    7     1       0.6141056218E-05       5    6    1         0.3597643995E-03      0.8800277181E-03

    ------------------------------------------------
       NWT REQUIRED            5 OUTER ITERATIONS 
       AND A TOTAL OF          9 INNER ITERATIONS.
    ------------------------------------------------

 NO OUTPUT CONTROL FOR STRESS PERIOD   33   TIME STEP   27
 
 SOLVING FOR HEAD 
                                                   Max.-Head-Change                         Max.-Flux-Residual
  Residual-Control   Outer-Iter.   Inner-Iter.     Column Row Layer    Maximum-Head-Change  Column Row Layer    Maximum-Flux-Residual          L2-NORM 
          0                 1           2             5    6     1       0.8014828306E-01       5    8    1         0.4336760249E+01      0.1088291301E+02
          0                 2           2             5    7     1      -0.4728040243E-01       5    8    1        -0.2592886462E+01      0.6332467007E+01
          0                 3           2             4    7     1       0.1966348680E-01       5    8    1         0.1089250044E+01      0.2669997657E+01
          0                 4           2             4    7     1      -0.7824306628E-03       5    8    1        -0.4454340862E-01      0.1097744118E+00
          0                 5           1             4    7     1       0.9647705858E-05       5    6    1         0.5640914210E-03      0.1464897251E-02

    ------------------------------------------------
       NWT REQUIRED            5 OUTER ITERATIONS 
       AND A TOTAL OF          9 INNER ITERATIONS.
    ------------------------------------------------

 NO OUTPUT CONTROL FOR STRESS PERIOD   33   TIME STEP   28
 
 SOLVING FOR HEAD 
                                                   Max.-Head-Change                         Max.-Flux-Residual
  Residual-Control   Outer-Iter.   Inner-Iter.     Column Row Layer    Maximum-Head-Change  Column Row Layer    Maximum-Flux-Residual          L2-NORM 
          0                 1           2             5    6     1       0.7782499363E-01       5    8    1         0.4201422118E+01      0.1063887839E+02
          0                 2           2             4    7     1      -0.1838593729E+00       5    8    1        -0.9918428033E+01      0.2426390619E+02
          0                 3           2             4    7     1       0.1251996492E-01       5    6    1         0.6942521196E+00      0.1698320257E+01
          0                 4           2             4    7     1      -0.4981819591E-03       5    6    1        -0.2839280712E-01      0.6945376952E-01
          0                 5           1             4    7     1       0.6142798049E-05       5    6    1         0.3596760757E-03      0.8799984469E-03

    ------------------------------------------------
       NWT REQUIRED            5 OUTER ITERATIONS 
       AND A TOTAL OF          9 INNER ITERATIONS.
    ------------------------------------------------

 NO OUTPUT CONTROL FOR STRESS PERIOD   33   TIME STEP   29
 
 SOLVING FOR HEAD 
                                                   Max.-Head-Change                         Max.-Flux-Residual
  Residual-Control   Outer-Iter.   Inner-Iter.     Column Row Layer    Maximum-Head-Change  Column Row Layer    Maximum-Flux-Residual          L2-NORM 
          0                 1           2             5    6     1       0.7983255759E-01       5    8    1         0.4319016549E+01      0.1085905798E+02
          0                 2           2             5    7     1      -0.4728273612E-01       5    8    1        -0.2591112186E+01      0.6331846800E+01
          0                 3           2             4    7     1       0.1966690258E-01       5    8    1         0.1089125844E+01      0.2669976037E+01
          0                 4           2             4    7     1      -0.7825665867E-03       5    8    1        -0.4453819454E-01      0.1097653070E+00
          0                 5           1             4    7     1       0.9649381936E-05       5    6    1         0.5640156951E-03      0.1464950780E-02

    ------------------------------------------------
       NWT REQUIRED            5 OUTER ITERATIONS 
       AND A TOTAL OF          9 INNER ITERATIONS.
    ------------------------------------------------

 NO OUTPUT CONTROL FOR STRESS PERIOD   33   TIME STEP   30



 STREAM LISTING     PERIOD     33   STEP       30

 LAYER ROW COL. STREAM  RCH.  FLOW INTO     FLOW TO   FLOW OUT OF   OVRLND.     DIRECT     STREAM       STREAM     STREAM     STREAM   STREAMBED  STREAMBED
                SEG.NO.  NO.  STRM. RCH.    AQUIFER    STRM. RCH.    RUNOFF     PRECIP       ET          HEAD       DEPTH      WIDTH   CONDCTNC.   GRADIENT

   1    1    1     1     1    2.2874E+01  2.3513E-01   2.2639E+01  0.000E+00  0.000E+00  0.000E+00  1.09419E+03  1.146E+00  1.260E+01  5.672E-02  1.382E+00
   1    2    2     1     2    2.2639E+01  3.6351E-01   2.2276E+01  0.000E+00  0.000E+00  0.000E+00  1.08920E+03  1.141E+00  1.254E+01  8.778E-02  1.380E+00
   1    3    3     1     3    2.2276E+01  3.0939E-01   2.1966E+01  0.000E+00  0.000E+00  0.000E+00  1.08355E+03  1.136E+00  1.247E+01  7.481E-02  1.379E+00
   1    3    4     1     4    2.1966E+01  2.8439E-01   2.1682E+01  0.000E+00  0.000E+00  0.000E+00  1.07854E+03  1.131E+00  1.240E+01  6.885E-02  1.377E+00
   1    4    5     2     1    1.9682E+01  3.1521E-01   1.9367E+01  0.000E+00  0.000E+00  0.000E+00  1.07298E+03  1.041E+00  1.200E+01  7.800E-02  1.347E+00
   1    5    6     2     2    1.9367E+01  2.4193E-01   1.9125E+01  0.000E+00  0.000E+00  0.000E+00  1.06754E+03  1.032E+00  1.200E+01  6.000E-02  1.344E+00
   1    6    6     2     3    1.9125E+01  2.4146E-01   1.8883E+01  0.000E+00  0.000E+00  0.000E+00  1.06282E+03  1.024E+00  1.200E+01  6.000E-02  1.341E+00
   1    7    6     2     4    1.8883E+01  2.4099E-01   1.8642E+01  0.000E+00  0.000E+00  0.000E+00  1.05809E+03  1.017E+00  1.200E+01  6.000E-02  1.339E+00
   1    8    6     2     5    1.8642E+01  2.4052E-01   1.8402E+01  0.000E+00  0.000E+00  0.000E+00  1.05337E+03  1.009E+00  1.200E+01  6.000E-02  1.336E+00
   1    3    5     3     1    2.0000E+00  2.8252E-01   1.7175E+00  0.000E+00  0.000E+00  0.000E+00  1.07555E+03  1.909E+00  9.636E+00  7.227E-02  1.955E+00
   1    3    6     3     2    1.7175E+00  2.4905E-01   1.4684E+00  0.000E+00  0.000E+00  0.000E+00  1.07264E+03  1.727E+00  8.909E+00  6.682E-02  1.864E+00
   1    3    7     3     3    1.4684E+00  1.9718E-01   1.2712E+00  0.000E+00  0.000E+00  0.000E+00  1.06987E+03  1.555E+00  8.218E+00  5.547E-02  1.777E+00
   1    4    8     3     4    1.2712E+00  2.2567E-01   1.0456E+00  0.000E+00  0.000E+00  0.000E+00  1.06682E+03  1.364E+00  7.455E+00  6.709E-02  1.682E+00
   1    5    8     3     5    1.0456E+00  1.5790E-01   8.8768E-01  0.000E+00  0.000E+00  0.000E+00  1.06362E+03  1.164E+00  6.655E+00  4.991E-02  1.582E+00
   1    6    8     3     6    8.8768E-01  5.5980E-02   8.3170E-01  0.000E+00  0.000E+00  0.000E+00  1.06158E+03  1.036E+00  6.145E+00  1.844E-02  1.518E+00
   1    5   10     4     1    1.0000E+01  9.0919E-02   9.9091E+00  0.000E+00  0.000E+00  0.000E+00  1.07836E+03  6.368E-01  1.000E+01  2.500E-02  1.212E+00
   1    5    9     4     2    9.9091E+00  1.8158E-01   9.7275E+00  0.000E+00  0.000E+00  0.000E+00  1.07154E+03  6.315E-01  1.000E+01  5.000E-02  1.211E+00
   1    6    8     4     3    9.7275E+00  1.2689E-01   9.6006E+00  0.000E+00  0.000E+00  0.000E+00  1.06381E+03  6.256E-01  1.000E+01  3.500E-02  1.209E+00
   1    6    8     5     1    1.0432E+01  2.2686E-01   1.0205E+01  0.000E+00  0.000E+00  0.000E+00  1.05868E+03  6.790E-01  1.542E+01  6.166E-02  1.226E+00
   1    7    7     5     2    1.0205E+01  2.7894E-01   9.9265E+00  0.000E+00  0.000E+00  0.000E+00  1.05417E+03  6.732E-01  1.519E+01  7.594E-02  1.224E+00
   1    8    7     5     3    9.9265E+00  1.9221E-01   9.7343E+00  0.000E+00  0.000E+00  0.000E+00  1.04992E+03  6.676E-01  1.497E+01  5.241E-02  1.223E+00
   1    8    6     5     4    9.7343E+00  1.3577E-01   9.5985E+00  0.000E+00  0.000E+00  0.000E+00  1.04691E+03  6.637E-01  1.482E+01  3.706E-02  1.221E+00
   1    9    6     6     1    9.5985E+00  2.2097E-01   9.3776E+00  0.000E+00  0.000E+00  0.000E+00  1.04341E+03  6.828E-01  1.200E+01  6.000E-02  1.228E+00
   1   10    7     6     2    9.3776E+00  2.2039E-01   9.1572E+00  0.000E+00  0.000E+00  0.000E+00  1.03885E+03  6.732E-01  1.200E+01  6.000E-02  1.224E+00
   1   11    7     6     3    9.1572E+00  2.1981E-01   8.9374E+00  0.000E+00  0.000E+00  0.000E+00  1.03430E+03  6.636E-01  1.200E+01  6.000E-02  1.221E+00
   1   12    7     6     4    8.9374E+00  2.1923E-01   8.7181E+00  0.000E+00  0.000E+00  0.000E+00  1.02974E+03  6.539E-01  1.200E+01  6.000E-02  1.218E+00
   1   13    7     6     5    8.7181E+00 -5.4799E-03   8.7236E+00  0.000E+00  0.000E+00  0.000E+00  1.02656E+03  6.491E-01  1.200E+01  2.400E-01 -7.611E-03
   1   14    9     7     1    1.5000E+02  1.3863E+00   1.4861E+02  0.000E+00  0.000E+00  0.000E+00  1.03987E+03  2.288E+00  5.529E+01  5.593E-01  8.262E-01
   1   13    8     7     2    1.4861E+02  1.9929E+00   1.4662E+02  0.000E+00  0.000E+00  0.000E+00  1.03478E+03  2.279E+00  5.525E+01  6.147E-01  1.081E+00
   1   13    7     7     3    1.4662E+02  1.7348E+00   1.4489E+02  0.000E+00  0.000E+00  0.000E+00  1.02969E+03  2.269E+00  5.521E+01  5.584E-01  1.036E+00
   1   13    6     8     1    1.5361E+02  1.0881E+00   1.5252E+02  0.000E+00  0.000E+00  0.000E+00  1.02471E+03  2.838E+00  4.116E+01  4.194E-01  8.648E-01
   1   13    5     8     2    1.5252E+02  3.4344E-01   1.5218E+02  0.000E+00  0.000E+00  0.000E+00  1.01846E+03  2.833E+00  4.108E+01  4.186E-01  2.734E-01
   1   13    4     8     3    1.5218E+02 -1.8401E+00   1.5402E+02  0.000E+00  0.000E+00  0.000E+00  1.01221E+03  2.839E+00  4.116E+01  4.194E+00 -1.462E-01
   1   13    3     8     4    1.5402E+02 -3.3460E+00   1.5736E+02  0.000E+00  0.000E+00  0.000E+00  1.00598E+03  2.856E+00  4.142E+01  4.221E+00 -2.643E-01
   1   13    2     8     5    1.5736E+02 -2.5078E+00   1.5987E+02  0.000E+00  0.000E+00  0.000E+00  9.99751E+02  2.876E+00  4.171E+01  4.250E+00 -1.967E-01
   1   13    1     8     6    1.5987E+02 -1.9682E+00   1.6184E+02  0.000E+00  0.000E+00  0.000E+00  9.94767E+02  2.892E+00  4.193E+01  2.564E+00 -2.559E-01
   1    8    6     9     1    1.8402E+01  0.0000E+00   1.8402E+01  0.000E+00  0.000E+00  0.000E+00  1.08202E+03  3.267E+00  4.000E+00  0.000E+00  2.089E+00
   1    8    5     9     2    1.8402E+01  0.0000E+00   1.8402E+01  0.000E+00  0.000E+00  0.000E+00  1.08152E+03  3.267E+00  4.000E+00  0.000E+00  2.089E+00





UNSATURATED ZONE PACKAGE VOLUMETRIC BUDGET FOR  TIME STEP    30 STRESS PERIOD   33
  ------------------------------------------------------------------------------



     CUMULATIVE VOLUMES      L**3       RATES FOR THIS TIME STEP      L**3/T
     ------------------                 ------------------------

           IN:                                      IN:
           ---                                      ---
        INFILTRATION =  1783332495.9810          INFILTRATION =          30.3185

          OUT:                                     OUT:
          ----                                     ----
              UZF ET =  1438157605.9490                UZF ET =          52.9209
        UZF RECHARGE =     5053646.5752          UZF RECHARGE =       0.0000E+00

            IN - OUT =   340121243.4568              IN - OUT =         -22.6025

          STORAGE:                                 STORAGE:
          --------                                 --------
      STORAGE CHANGE =   340121215.8090        STORAGE CHANGE =         -22.6025

 PERCENT DISCREPANCY IS DIFFERENCE BETWEEN IN-OUT MINUS CHANGE IN STORAGE
 DIVIDED BY THE AVERAGE OF IN AND OUT TIMES 100

 PERCENT DISCREPANCY =           0.00     PERCENT DISCREPANCY =           0.00






1
  VOLUMETRIC BUDGET FOR AGRICULTURAL FIELDS AT  END OF TIME STEP   30, STRESS PERIOD  33
  ------------------------------------------------------------------------------

     CUMULATIVE VOLUMES      L**3       RATES FOR THIS TIME STEP      L**3/T
     ------------------                 ------------------------

           IN:                                      IN:
           ---                                      ---
               AG WELLS  =   863786368.0000                 AG WELLS  =           7.5088
      DIVERSION SEGMENTS =   548826880.0000        DIVERSION SEGMENTS =          18.4018
           GW IRRIGATION =           0.0000             GW IRRIGATION =           0.0000
           SW IRRIGATION =           0.0000             SW IRRIGATION =           0.0000
        SYSTEM LOSSES GW =           0.0000          SYSTEM LOSSES GW =           0.0000
        SYSTEM LOSSES SW =           0.0000          SYSTEM LOSSES SW =           0.0000

                TOTAL IN =  1412613248.0000                  TOTAL IN =          25.9106

          OUT:                                     OUT:
          ----                                     ----
               AG WELLS  =           0.0000                 AG WELLS  =           0.0000
      DIVERSION SEGMENTS =           0.0000        DIVERSION SEGMENTS =           0.0000
           GW IRRIGATION =   863786368.0000             GW IRRIGATION =           7.5088
           SW IRRIGATION =   548837120.0000             SW IRRIGATION =          18.4022
        SYSTEM LOSSES GW =           0.0000          SYSTEM LOSSES GW =           0.0000
        SYSTEM LOSSES SW =           0.0000          SYSTEM LOSSES SW =           0.0000

               TOTAL OUT =  1412623488.0000                 TOTAL OUT =          25.9110

                IN - OUT =      -10240.0000                  IN - OUT =      -3.6812E-04

     PERCENT DISCREPANCY =          -0.00         PERCENT DISCREPANCY =          -0.00



1
  VOLUMETRIC BUDGET FOR ENTIRE MODEL AT END OF TIME STEP   30, STRESS PERIOD  33
  ------------------------------------------------------------------------------

     CUMULATIVE VOLUMES      L**3       RATES FOR THIS TIME STEP      L**3/T
     ------------------                 ------------------------

           IN:                                      IN:
           ---                                      ---
             STORAGE     =  1204545152.0000               STORAGE     =          21.5442
       CONSTANT HEAD     =           0.0000         CONSTANT HEAD     =           0.0000
     HEAD DEP BOUNDS     =    24287866.0000       HEAD DEP BOUNDS     =           0.2892
      STREAM LEAKAGE     =   999916288.0000        STREAM LEAKAGE     =          12.2999
        UZF RECHARGE     =     5053646.5000          UZF RECHARGE     =           0.0000
               GW ET     =           0.0000                 GW ET     =           0.0000
     SURFACE LEAKAGE     =           0.0000       SURFACE LEAKAGE     =           0.0000
           AG WELLS      =           0.0000             AG WELLS      =           0.0000

                TOTAL IN =  2233803008.0000                  TOTAL IN =          34.1333

          OUT:                                     OUT:
          ----                                     ----
             STORAGE     =   498562848.0000               STORAGE     =          16.6705
       CONSTANT HEAD     =           0.0000         CONSTANT HEAD     =           0.0000
     HEAD DEP BOUNDS     =    24255344.0000       HEAD DEP BOUNDS     =           0.2863
      STREAM LEAKAGE     =   847207104.0000        STREAM LEAKAGE     =           9.6676
        UZF RECHARGE     =           0.0000          UZF RECHARGE     =           0.0000
               GW ET     =           0.0000                 GW ET     =           0.0000
     SURFACE LEAKAGE     =           0.0000       SURFACE LEAKAGE     =           0.0000
           AG WELLS      =   863786368.0000             AG WELLS      =           7.5088

               TOTAL OUT =  2233811456.0000                 TOTAL OUT =          34.1332

                IN - OUT =       -8448.0000                  IN - OUT =       7.2479E-05

     PERCENT DISCREPANCY =          -0.00         PERCENT DISCREPANCY =           0.00






         TIME SUMMARY AT END OF TIME STEP   30 IN STRESS PERIOD   33
                    SECONDS     MINUTES      HOURS       DAYS        YEARS
                    -----------------------------------------------------------
   TIME STEP LENGTH  87667.      1461.1      24.352      1.0147     2.77799E-03
 STRESS PERIOD TIME 2.63000E+06  43833.      730.56      30.440     8.33397E-02
         TOTAL TIME 8.42463E+07 1.40410E+06  23402.      975.07      2.6696    
1
1
                            STRESS PERIOD NO.   34, LENGTH =   2630000.    
                            -----------------------------------------------

                              NUMBER OF TIME STEPS =    30

                               MULTIPLIER FOR DELT =     1.000

                            INITIAL TIME STEP SIZE =   87666.66    

 REUSING NON-PARAMETER GHB CELLS FROM LAST STRESS PERIOD

      2 GHB CELLS

 REUSING STREAM SEGMENT DATA FROM LAST STRESS PERIOD



            AREAL INFILTRATION RATE
 READING ON UNIT   19 WITH FORMAT: (10F4.0)            

            1           2           3           4           5           6           7           8           9          10
 ........................................................................................................................
   1   1.2000E-09   0.000       0.000       0.000       0.000       0.000       0.000       0.000       0.000       0.000    
   2   2.1000E-09  2.0000E-09  8.0000E-10  8.5000E-09   0.000       0.000       0.000       0.000       0.000       0.000    
   3   5.0000E-10  1.1000E-09  8.8000E-09  5.5000E-09   0.000       0.000       0.000       0.000       0.000       0.000    
   4   8.5000E-09  1.1000E-09  1.1000E-09  1.1000E-09  2.0000E-09   0.000       0.000       0.000       0.000       0.000    
   5   8.5000E-09  1.1000E-09  1.1000E-09  1.1000E-09  1.1000E-09   0.000       0.000       0.000       0.000       0.000    
   6   8.5000E-09  5.2000E-09  2.1000E-09  1.1000E-09  1.5000E-09   0.000       0.000       0.000       0.000       0.000    
   7   8.5000E-09  5.2000E-09  2.1000E-09  1.2000E-09  2.0000E-09   0.000       0.000       0.000       0.000       0.000    
   8   5.0000E-10  5.2000E-09  2.1000E-09  1.2000E-09  5.0000E-09   0.000       0.000       0.000       0.000       0.000    
   9   5.0000E-10  5.2000E-09  2.1000E-09  1.2000E-09  5.0000E-09   0.000       0.000       0.000       0.000       0.000    
  10   5.0000E-10  5.2000E-09  2.1000E-09  1.2000E-09  5.8000E-09   0.000       0.000       0.000       0.000       0.000    
  11   1.0000E-10  1.1000E-09  1.1000E-09  1.2000E-09  5.0000E-09   0.000       0.000       0.000       0.000       0.000    
  12   1.1000E-09  1.1000E-09  1.1000E-09  1.1000E-09  2.0000E-09   0.000       0.000       0.000       0.000       0.000    
  13   1.1000E-09  2.2000E-09  2.2000E-09  2.1000E-09  1.0000E-09   0.000       0.000       0.000       0.000       0.000    
  14   2.0000E-10  5.5000E-09  5.5000E-09  5.2000E-09  1.0000E-09   0.000       0.000       0.000       0.000       0.000    
  15    0.000      8.8000E-09  8.8000E-09   0.000       0.000       0.000       0.000       0.000       0.000       0.000    

                  ET RATE =  7.500000E-08

 USING ET EXTINCTION DEPTH FROM PREVIOUS STRESS PERIOD. CURRENT PERIOD IS:      34

 USING EXTINCTION WATER CONTENT FROM PREVIOUS STRESS PERIOD. CURRENT PERIOD IS:      34

 USING AIR ENTRY PRESSURE FROM PREVIOUS STRESS PERIOD. CURRENT PERIOD IS:      34

 USING ROOT PRESSURE HEAD FROM PREVIOUS STRESS PERIOD. CURRENT PERIOD IS:      34

 USING ROOT ACTIVITY FROM PREVIOUS STRESS PERIOD. CURRENT PERIOD IS:      34

 PROCESSING AG STRESS PERIOD DATA

 READING AG STRESS PERIOD DATA

 READING IRRIGATION SEGMENT

 READING IRRIGATION WELL

 READING SUPPLEMENTAL WELL

 END PROCESSING AG STRESS PERIOD DATA OPTIONS
 
 SOLVING FOR HEAD 
                                                   Max.-Head-Change                         Max.-Flux-Residual
  Residual-Control   Outer-Iter.   Inner-Iter.     Column Row Layer    Maximum-Head-Change  Column Row Layer    Maximum-Flux-Residual          L2-NORM 
          0                 1           2             5    6     1       0.7753894864E-01       5    8    1         0.4185424269E+01      0.1061848713E+02
          0                 2           2             5    6     1      -0.8135951149E-02       5    8    1        -0.4511648545E+00      0.1144937149E+01
          0                 3           2             5    6     1       0.1131487445E-02       5    8    1         0.6420913704E-01      0.1570370140E+00
          0                 4           1             5    6     1      -0.4502286318E-04       5    8    1        -0.2626157167E-02      0.6425278765E-02

    ------------------------------------------------
       NWT REQUIRED            4 OUTER ITERATIONS 
       AND A TOTAL OF          7 INNER ITERATIONS.
    ------------------------------------------------

 NO OUTPUT CONTROL FOR STRESS PERIOD   34   TIME STEP    1
 
 SOLVING FOR HEAD 
                                                   Max.-Head-Change                         Max.-Flux-Residual
  Residual-Control   Outer-Iter.   Inner-Iter.     Column Row Layer    Maximum-Head-Change  Column Row Layer    Maximum-Flux-Residual          L2-NORM 
          0                 1           2             5    6     1       0.7473618765E-01       5    6    1         0.4029754965E+01      0.1031646065E+02
          0                 2           2             4    7     1      -0.4088947693E-01       5    6    1        -0.2227970750E+01      0.5463292481E+01
          0                 3           2             4    7     1       0.2152473573E-01       5    6    1         0.1189754785E+01      0.2920283495E+01
          0                 4           2             4    7     1      -0.8564919763E-03       5    6    1        -0.4865312923E-01      0.1200935619E+00
          0                 5           1             4    7     1       0.1056091342E-04       5    6    1         0.6160396010E-03      0.1674210546E-02

    ------------------------------------------------
       NWT REQUIRED            5 OUTER ITERATIONS 
       AND A TOTAL OF          9 INNER ITERATIONS.
    ------------------------------------------------

 NO OUTPUT CONTROL FOR STRESS PERIOD   34   TIME STEP    2
 
 SOLVING FOR HEAD 
                                                   Max.-Head-Change                         Max.-Flux-Residual
  Residual-Control   Outer-Iter.   Inner-Iter.     Column Row Layer    Maximum-Head-Change  Column Row Layer    Maximum-Flux-Residual          L2-NORM 
          0                 1           2             5    7     1       0.7284268302E-01       5    6    1         0.3906226434E+01      0.1007503042E+02
          0                 2           2             5    7     1      -0.7194078472E-02       5    6    1        -0.3965007154E+00      0.1026348332E+01
          0                 3           2             5    7     1       0.4588727721E-03       5    6    1         0.2602640567E-01      0.6789018323E-01
          0                 4           1             5    7     1      -0.2643901163E-04       5    6    1        -0.1533084606E-02      0.4305350867E-02

    ------------------------------------------------
       NWT REQUIRED            4 OUTER ITERATIONS 
       AND A TOTAL OF          7 INNER ITERATIONS.
    ------------------------------------------------

 NO OUTPUT CONTROL FOR STRESS PERIOD   34   TIME STEP    3
 
 SOLVING FOR HEAD 
                                                   Max.-Head-Change                         Max.-Flux-Residual
  Residual-Control   Outer-Iter.   Inner-Iter.     Column Row Layer    Maximum-Head-Change  Column Row Layer    Maximum-Flux-Residual          L2-NORM 
          0                 1           2             5    7     1       0.7142178947E-01       5    7    1         0.3785778201E+01      0.9804175458E+01
          0                 2           2             4    7     1      -0.4082349625E-01       5    7    1        -0.2203576457E+01      0.5417555772E+01
          0                 3           2             4    7     1       0.1007017076E-01       5    7    1         0.5564115830E+00      0.1363765109E+01
          0                 4           2             4    7     1      -0.4007020758E-03       5    7    1        -0.2275721163E-01      0.5608968783E-01
          0                 5           1             7   13     1       0.8276263687E-05       7   13    1         0.4615507228E-03      0.8632422268E-03

    ------------------------------------------------
       NWT REQUIRED            5 OUTER ITERATIONS 
       AND A TOTAL OF          9 INNER ITERATIONS.
    ------------------------------------------------

 NO OUTPUT CONTROL FOR STRESS PERIOD   34   TIME STEP    4
 
 SOLVING FOR HEAD 
                                                   Max.-Head-Change                         Max.-Flux-Residual
  Residual-Control   Outer-Iter.   Inner-Iter.     Column Row Layer    Maximum-Head-Change  Column Row Layer    Maximum-Flux-Residual          L2-NORM 
          0                 1           2             5    7     1       0.7041815643E-01       5    7    1         0.3732539442E+01      0.9623569181E+01
          0                 2           2             5    7     1      -0.6978792690E-02       5    7    1        -0.3802491770E+00      0.9840996524E+00
          0                 3           2             5    7     1       0.5038641373E-03       5    7    1         0.2821332407E-01      0.7249593590E-01
          0                 4           1             4    7     1      -0.5571157727E-04       5    7    1        -0.3184878878E-02      0.7940778132E-02

    ------------------------------------------------
       NWT REQUIRED            4 OUTER ITERATIONS 
       AND A TOTAL OF          7 INNER ITERATIONS.
    ------------------------------------------------

 NO OUTPUT CONTROL FOR STRESS PERIOD   34   TIME STEP    5
 
 SOLVING FOR HEAD 
                                                   Max.-Head-Change                         Max.-Flux-Residual
  Residual-Control   Outer-Iter.   Inner-Iter.     Column Row Layer    Maximum-Head-Change  Column Row Layer    Maximum-Flux-Residual          L2-NORM 
          0                 1           2             4    7     1       0.6930605794E-01       5    7    1         0.3659758279E+01      0.9374941602E+01
          0                 2           2             4    7     1      -0.4074944328E-01       5    7    1        -0.2190975184E+01      0.5379759441E+01
          0                 3           2             4    7     1       0.1006512600E-01       5    7    1         0.5555294650E+00      0.1361212201E+01
          0                 4           2             4    7     1      -0.4005013516E-03       5    7    1        -0.2272073378E-01      0.5597754646E-01
          0                 5           1             7   13     1       0.8122729065E-05       7   13    1         0.4529984699E-03      0.8573115964E-03

    ------------------------------------------------
       NWT REQUIRED            5 OUTER ITERATIONS 
       AND A TOTAL OF          9 INNER ITERATIONS.
    ------------------------------------------------

 NO OUTPUT CONTROL FOR STRESS PERIOD   34   TIME STEP    6
 
 SOLVING FOR HEAD 
                                                   Max.-Head-Change                         Max.-Flux-Residual
  Residual-Control   Outer-Iter.   Inner-Iter.     Column Row Layer    Maximum-Head-Change  Column Row Layer    Maximum-Flux-Residual          L2-NORM 
          0                 1           2             4    7     1       0.6894692791E-01       5    7    1         0.3608925758E+01      0.9213700457E+01
          0                 2           2             4    7     1      -0.6843697397E-02       5    7    1        -0.3682457979E+00      0.9442733244E+00
          0                 3           2             4    7     1       0.4906166001E-03       5    7    1         0.2713350719E-01      0.6917012805E-01
          0                 4           1             4    7     1      -0.6231352047E-04       5    7    1        -0.3536120853E-02      0.8783259207E-02

    ------------------------------------------------
       NWT REQUIRED            4 OUTER ITERATIONS 
       AND A TOTAL OF          7 INNER ITERATIONS.
    ------------------------------------------------

 NO OUTPUT CONTROL FOR STRESS PERIOD   34   TIME STEP    7
 
 SOLVING FOR HEAD 
                                                   Max.-Head-Change                         Max.-Flux-Residual
  Residual-Control   Outer-Iter.   Inner-Iter.     Column Row Layer    Maximum-Head-Change  Column Row Layer    Maximum-Flux-Residual          L2-NORM 
          0                 1           2             5    8     1       0.1633329734E+00       5    8    1         0.8927030028E+01      0.1222228095E+02
          0                 2           2             4    7     1      -0.4064152676E-01       4    7    1        -0.2183233177E+01      0.4977991054E+01
          0                 3           2             4    7     1       0.1005887741E-01       5    7    1         0.5550647114E+00      0.1326172185E+01
          0                 4           2             5    8     1       0.6931856060E-03       5    8    1         0.3891196857E-01      0.6393998548E-01
          0                 5           1             5    8     1       0.5489735599E-04       5    8    1         0.3019841667E-02      0.3133484758E-02

    ------------------------------------------------
       NWT REQUIRED            5 OUTER ITERATIONS 
       AND A TOTAL OF          9 INNER ITERATIONS.
    ------------------------------------------------

 NO OUTPUT CONTROL FOR STRESS PERIOD   34   TIME STEP    8
 
 SOLVING FOR HEAD 
                                                   Max.-Head-Change                         Max.-Flux-Residual
  Residual-Control   Outer-Iter.   Inner-Iter.     Column Row Layer    Maximum-Head-Change  Column Row Layer    Maximum-Flux-Residual          L2-NORM 
          0                 1           2             4    7     1       0.6815138019E-01       5    7    1         0.3622255098E+01      0.8745576839E+01
          0                 2           2             4    7     1      -0.6756197896E-02       5    7    1        -0.3692344370E+00      0.8819514277E+00
          0                 3           2             4    7     1       0.5178427696E-03       5    7    1         0.2911310855E-01      0.6919360027E-01
          0                 4           1             4    7     1      -0.4169241707E-04       5    7    1        -0.2370189816E-02      0.5406210628E-02

    ------------------------------------------------
       NWT REQUIRED            4 OUTER ITERATIONS 
       AND A TOTAL OF          7 INNER ITERATIONS.
    ------------------------------------------------

 NO OUTPUT CONTROL FOR STRESS PERIOD   34   TIME STEP    9
 
 SOLVING FOR HEAD 
                                                   Max.-Head-Change                         Max.-Flux-Residual
  Residual-Control   Outer-Iter.   Inner-Iter.     Column Row Layer    Maximum-Head-Change  Column Row Layer    Maximum-Flux-Residual          L2-NORM 
          0                 1           2             5    8     1       0.2312363029E+00       5    8    1         0.1266740487E+02      0.1505212518E+02
          0                 2           2             4    7     1      -0.4057628116E-01       5    7    1        -0.2179498194E+01      0.4940179209E+01
          0                 3           2             4    7     1       0.1005447020E-01       5    7    1         0.5548478207E+00      0.1277815645E+01
          0                 4           2             5    8     1       0.7143361458E-03       5    8    1         0.4234369258E-01      0.6632623966E-01
          0                 5           1             5    8     1       0.9190344898E-04       5    8    1         0.5350810450E-02      0.5411947123E-02

    ------------------------------------------------
       NWT REQUIRED            5 OUTER ITERATIONS 
       AND A TOTAL OF          9 INNER ITERATIONS.
    ------------------------------------------------

 NO OUTPUT CONTROL FOR STRESS PERIOD   34   TIME STEP   10
 
 SOLVING FOR HEAD 
                                                   Max.-Head-Change                         Max.-Flux-Residual
  Residual-Control   Outer-Iter.   Inner-Iter.     Column Row Layer    Maximum-Head-Change  Column Row Layer    Maximum-Flux-Residual          L2-NORM 
          0                 1           2             5    7     1       0.6848926234E-01       5    7    1         0.3657198153E+01      0.8355094727E+01
          0                 2           2             5    7     1      -0.6691577332E-02       5    7    1        -0.3722839540E+00      0.8501595664E+00
          0                 3           2             5    7     1       0.5179960753E-03       5    7    1         0.2922303042E-01      0.6652994635E-01
          0                 4           1             4    7     1      -0.3833211331E-04       5    7    1        -0.2203748494E-02      0.4949014096E-02

    ------------------------------------------------
       NWT REQUIRED            4 OUTER ITERATIONS 
       AND A TOTAL OF          7 INNER ITERATIONS.
    ------------------------------------------------

 NO OUTPUT CONTROL FOR STRESS PERIOD   34   TIME STEP   11
 
 SOLVING FOR HEAD 
                                                   Max.-Head-Change                         Max.-Flux-Residual
  Residual-Control   Outer-Iter.   Inner-Iter.     Column Row Layer    Maximum-Head-Change  Column Row Layer    Maximum-Flux-Residual          L2-NORM 
          0                 1           2             5    8     1       0.2173629710E+00       5    8    1         0.1189515333E+02      0.1431080805E+02
          0                 2           2             4    7     1      -0.4042795754E-01       5    7    1        -0.2177069107E+01      0.4927553284E+01
          0                 3           2             4    7     1       0.1012086116E-01       5    7    1         0.5589013050E+00      0.1285170338E+01
          0                 4           2             5    8     1       0.7109582197E-03       5    8    1         0.4215803093E-01      0.6645627127E-01
          0                 5           1             5    8     1       0.9146570601E-04       5    8    1         0.5325244942E-02      0.5386538634E-02

    ------------------------------------------------
       NWT REQUIRED            5 OUTER ITERATIONS 
       AND A TOTAL OF          9 INNER ITERATIONS.
    ------------------------------------------------

 NO OUTPUT CONTROL FOR STRESS PERIOD   34   TIME STEP   12
 
 SOLVING FOR HEAD 
                                                   Max.-Head-Change                         Max.-Flux-Residual
  Residual-Control   Outer-Iter.   Inner-Iter.     Column Row Layer    Maximum-Head-Change  Column Row Layer    Maximum-Flux-Residual          L2-NORM 
          0                 1           2             5    7     1       0.6896492208E-01       5    7    1         0.3660159198E+01      0.8717261135E+01
          0                 2           2             5    8     1       0.2882287050E-01       5    8    1         0.1601544697E+01      0.1799018077E+01
          0                 3           2             5    8     1       0.1278776548E-01       5    8    1         0.7047964703E+00      0.7077616240E+00
          0                 4           1             5    8     1       0.5625786084E-02       5    8    1         0.3105073775E+00      0.3105432218E+00
          0                 5           1             5    8     1       0.2451186465E-02       5    8    1         0.1353110689E+00      0.1353651625E+00
          0                 6           1             5    8     1       0.1026651298E-02       5    8    1         0.5674071430E-01      0.5713368493E-01
          0                 7           1             5    8     1       0.4479084787E-03       5    8    1         0.2472323810E-01      0.2483687830E-01
          0                 8           1             5    8     1       0.2926528196E-03       5    8    1         0.1599427195E-01      0.1978735111E-01
          0                 9           1             5    8     1       0.1082275454E-03       5    8    1         0.6003603083E-02      0.6539652682E-02
          0                10           1             4    7     1      -0.2783637526E-04       4    7    1        -0.1668528488E-02      0.4113960037E-02

    ------------------------------------------------
       NWT REQUIRED           10 OUTER ITERATIONS 
       AND A TOTAL OF         13 INNER ITERATIONS.
    ------------------------------------------------

 NO OUTPUT CONTROL FOR STRESS PERIOD   34   TIME STEP   13
 
 SOLVING FOR HEAD 
                                                   Max.-Head-Change                         Max.-Flux-Residual
  Residual-Control   Outer-Iter.   Inner-Iter.     Column Row Layer    Maximum-Head-Change  Column Row Layer    Maximum-Flux-Residual          L2-NORM 
          0                 1           2             5    8     1       0.1144750771E+00       5    8    1         0.6208016985E+01      0.1001742102E+02
          0                 2           2             4    7     1      -0.3670119342E-01       5    7    1        -0.1987064718E+01      0.4541702930E+01
          0                 3           2             4    7     1       0.1343568910E-01       5    7    1         0.7424780009E+00      0.1726845053E+01
          0                 4           2             5    8     1       0.1101723670E-02       5    8    1         0.6517708673E-01      0.9441468486E-01
          0                 5           1             5    8     1       0.1417339932E-03       5    8    1         0.8253292714E-02      0.8316560266E-02
          0                 6           1             5    8     1       0.1823255049E-04       5    8    1         0.1062920392E-02      0.1063514593E-02

    ------------------------------------------------
       NWT REQUIRED            6 OUTER ITERATIONS 
       AND A TOTAL OF         10 INNER ITERATIONS.
    ------------------------------------------------

 NO OUTPUT CONTROL FOR STRESS PERIOD   34   TIME STEP   14
 
 SOLVING FOR HEAD 
                                                   Max.-Head-Change                         Max.-Flux-Residual
  Residual-Control   Outer-Iter.   Inner-Iter.     Column Row Layer    Maximum-Head-Change  Column Row Layer    Maximum-Flux-Residual          L2-NORM 
          0                 1           2             5    7     1       0.6751149340E-01       5    7    1         0.3624577357E+01      0.7816029244E+01
          0                 2           2             5    7     1      -0.1045684770E-01       5    7    1        -0.5750360515E+00      0.1255350638E+01
          0                 3           2             4    7     1       0.4333917412E-02       5    7    1         0.2403603857E+00      0.5648209736E+00
          0                 4           2             5    8     1       0.4376380380E-03       5    8    1         0.2578650413E-01      0.3211045714E-01
          0                 5           1             4    7     1      -0.3375197023E-04       5    6    1        -0.1917482727E-02      0.5237279297E-02

    ------------------------------------------------
       NWT REQUIRED            5 OUTER ITERATIONS 
       AND A TOTAL OF          9 INNER ITERATIONS.
    ------------------------------------------------

 NO OUTPUT CONTROL FOR STRESS PERIOD   34   TIME STEP   15
 
 SOLVING FOR HEAD 
                                                   Max.-Head-Change                         Max.-Flux-Residual
  Residual-Control   Outer-Iter.   Inner-Iter.     Column Row Layer    Maximum-Head-Change  Column Row Layer    Maximum-Flux-Residual          L2-NORM 
          0                 1           2             4    7     1       0.6546502182E-01       5    7    1         0.3510556459E+01      0.7631609325E+01
          0                 2           2             4    7     1      -0.3638412246E-01       5    7    1        -0.1961901317E+01      0.4616267437E+01
          0                 3           2             4    7     1       0.1364905815E-01       5    7    1         0.7536515022E+00      0.1785135154E+01
          0                 4           2             4    7     1      -0.5431099313E-03       5    7    1        -0.3082110703E-01      0.7341815355E-01
          0                 5           1             7   13     1       0.7105778995E-05       7   13    1         0.3967709454E-03      0.1057978445E-02

    ------------------------------------------------
       NWT REQUIRED            5 OUTER ITERATIONS 
       AND A TOTAL OF          9 INNER ITERATIONS.
    ------------------------------------------------

 NO OUTPUT CONTROL FOR STRESS PERIOD   34   TIME STEP   16
 
 SOLVING FOR HEAD 
                                                   Max.-Head-Change                         Max.-Flux-Residual
  Residual-Control   Outer-Iter.   Inner-Iter.     Column Row Layer    Maximum-Head-Change  Column Row Layer    Maximum-Flux-Residual          L2-NORM 
          0                 1           2             4    7     1       0.6501487258E-01       5    7    1         0.3415838962E+01      0.7496907472E+01
          0                 2           2             4    7     1      -0.1003442613E-01       5    7    1        -0.5407350777E+00      0.1195833903E+01
          0                 3           2             4    7     1       0.4081888221E-02       5    7    1         0.2253446439E+00      0.5294725038E+00
          0                 4           2             5    8     1       0.3728607493E-03       5    8    1         0.2204632732E-01      0.3112623038E-01
          0                 5           1             5    8     1       0.5400664319E-04       5    8    1         0.3135162662E-02      0.4470036036E-02

    ------------------------------------------------
       NWT REQUIRED            5 OUTER ITERATIONS 
       AND A TOTAL OF          9 INNER ITERATIONS.
    ------------------------------------------------

 NO OUTPUT CONTROL FOR STRESS PERIOD   34   TIME STEP   17
 
 SOLVING FOR HEAD 
                                                   Max.-Head-Change                         Max.-Flux-Residual
  Residual-Control   Outer-Iter.   Inner-Iter.     Column Row Layer    Maximum-Head-Change  Column Row Layer    Maximum-Flux-Residual          L2-NORM 
          0                 1           2             4    7     1       0.6443948206E-01       4    7    1         0.3378089144E+01      0.7330044618E+01
          0                 2           2             4    7     1      -0.3610520542E-01       4    7    1        -0.1939050179E+01      0.4561246676E+01
          0                 3           2             4    7     1       0.1380395845E-01       4    7    1         0.7616555476E+00      0.1796813129E+01
          0                 4           2             4    7     1      -0.5492736092E-03       4    7    1        -0.3115182256E-01      0.7389993658E-01
          0                 5           1             7   13     1       0.6934428988E-05       4    7    1         0.3947891469E-03      0.1061923594E-02

    ------------------------------------------------
       NWT REQUIRED            5 OUTER ITERATIONS 
       AND A TOTAL OF          9 INNER ITERATIONS.
    ------------------------------------------------

 NO OUTPUT CONTROL FOR STRESS PERIOD   34   TIME STEP   18
 
 SOLVING FOR HEAD 
                                                   Max.-Head-Change                         Max.-Flux-Residual
  Residual-Control   Outer-Iter.   Inner-Iter.     Column Row Layer    Maximum-Head-Change  Column Row Layer    Maximum-Flux-Residual          L2-NORM 
          0                 1           2             4    7     1       0.6392360797E-01       4    7    1         0.3352637806E+01      0.7210448666E+01
          0                 2           2             4    7     1      -0.1040906779E-01       4    7    1        -0.5602343258E+00      0.1221600983E+01
          0                 3           2             4    7     1       0.4562733013E-02       4    7    1         0.2518274872E+00      0.5932164094E+00
          0                 4           2             5    8     1       0.4400417643E-03       5    8    1         0.2598215190E-01      0.3492665020E-01
          0                 5           1             4   13     1      -0.2941093572E-04       4   13    1        -0.1829069902E-02      0.4743954840E-02

    ------------------------------------------------
       NWT REQUIRED            5 OUTER ITERATIONS 
       AND A TOTAL OF          9 INNER ITERATIONS.
    ------------------------------------------------

 NO OUTPUT CONTROL FOR STRESS PERIOD   34   TIME STEP   19
 
 SOLVING FOR HEAD 
                                                   Max.-Head-Change                         Max.-Flux-Residual
  Residual-Control   Outer-Iter.   Inner-Iter.     Column Row Layer    Maximum-Head-Change  Column Row Layer    Maximum-Flux-Residual          L2-NORM 
          0                 1           2             4    7     1       0.6329419305E-01       4    7    1         0.3321429022E+01      0.7058313073E+01
          0                 2           2             4    7     1      -0.3594115960E-01       4    7    1        -0.1930569304E+01      0.4525986661E+01
          0                 3           2             4    7     1       0.1384367083E-01       4    7    1         0.7638773416E+00      0.1795201110E+01
          0                 4           2             4    7     1      -0.5508268442E-03       4    7    1        -0.3124263109E-01      0.7273142641E-01
          0                 5           1             5    8     1      -0.5020645568E-04       5    8    1        -0.3021803058E-02      0.3188973903E-02

    ------------------------------------------------
       NWT REQUIRED            5 OUTER ITERATIONS 
       AND A TOTAL OF          9 INNER ITERATIONS.
    ------------------------------------------------

 NO OUTPUT CONTROL FOR STRESS PERIOD   34   TIME STEP   20
 
 SOLVING FOR HEAD 
                                                   Max.-Head-Change                         Max.-Flux-Residual
  Residual-Control   Outer-Iter.   Inner-Iter.     Column Row Layer    Maximum-Head-Change  Column Row Layer    Maximum-Flux-Residual          L2-NORM 
          0                 1           2             4    7     1       0.6273111243E-01       4    7    1         0.3293111187E+01      0.6952061884E+01
          0                 2           2             4    7     1      -0.1010826789E-01       4    7    1        -0.5443772352E+00      0.1169622932E+01
          0                 3           2             4    7     1       0.4345766402E-02       4    7    1         0.2398767263E+00      0.5646007874E+00
          0                 4           2             5    8     1       0.4647237531E-03       5    8    1         0.2733317820E-01      0.3213295959E-01
          0                 5           1             4    7     1      -0.5692189374E-04       5    6    1        -0.3232095107E-02      0.7706714701E-02

    ------------------------------------------------
       NWT REQUIRED            5 OUTER ITERATIONS 
       AND A TOTAL OF          9 INNER ITERATIONS.
    ------------------------------------------------

 NO OUTPUT CONTROL FOR STRESS PERIOD   34   TIME STEP   21
 
 SOLVING FOR HEAD 
                                                   Max.-Head-Change                         Max.-Flux-Residual
  Residual-Control   Outer-Iter.   Inner-Iter.     Column Row Layer    Maximum-Head-Change  Column Row Layer    Maximum-Flux-Residual          L2-NORM 
          0                 1           2             4    7     1       0.6206249197E-01       4    7    1         0.3259479028E+01      0.6811129770E+01
          0                 2           2             4    7     1      -0.3557490922E-01       4    7    1        -0.1911157909E+01      0.4467907286E+01
          0                 3           2             4    7     1       0.1405818858E-01       4    7    1         0.7757350825E+00      0.1818935479E+01
          0                 4           2             4    7     1      -0.5592380017E-03       4    7    1        -0.3172754436E-01      0.7132605207E-01
          0                 5           1             4    7     1       0.6893784826E-05       4    7    1         0.4020760384E-03      0.1064359523E-02

    ------------------------------------------------
       NWT REQUIRED            5 OUTER ITERATIONS 
       AND A TOTAL OF          9 INNER ITERATIONS.
    ------------------------------------------------

 NO OUTPUT CONTROL FOR STRESS PERIOD   34   TIME STEP   22
 
 SOLVING FOR HEAD 
                                                   Max.-Head-Change                         Max.-Flux-Residual
  Residual-Control   Outer-Iter.   Inner-Iter.     Column Row Layer    Maximum-Head-Change  Column Row Layer    Maximum-Flux-Residual          L2-NORM 
          0                 1           2             4    7     1       0.6146421963E-01       4    7    1         0.3229001246E+01      0.6714618138E+01
          0                 2           2             4    7     1      -0.1042567151E-01       4    7    1        -0.5616183404E+00      0.1198878509E+01
          0                 3           2             4    7     1       0.4781314424E-02       4    7    1         0.2639197879E+00      0.6218240300E+00
          0                 4           2             5    8     1       0.4940490366E-03       5    8    1         0.2910413272E-01      0.3611148431E-01
          0                 5           1             5    8     1       0.6056253796E-04       5    8    1         0.3533093937E-02      0.4744968209E-02

    ------------------------------------------------
       NWT REQUIRED            5 OUTER ITERATIONS 
       AND A TOTAL OF          9 INNER ITERATIONS.
    ------------------------------------------------

 NO OUTPUT CONTROL FOR STRESS PERIOD   34   TIME STEP   23
 
 SOLVING FOR HEAD 
                                                   Max.-Head-Change                         Max.-Flux-Residual
  Residual-Control   Outer-Iter.   Inner-Iter.     Column Row Layer    Maximum-Head-Change  Column Row Layer    Maximum-Flux-Residual          L2-NORM 
          0                 1           2             4    7     1       0.6076857316E-01       4    7    1         0.3193658608E+01      0.6583420669E+01
          0                 2           2             4    7     1      -0.3531343912E-01       4    7    1        -0.1897305986E+01      0.4426657006E+01
          0                 3           2             4    7     1       0.1417207361E-01       4    7    1         0.7820357112E+00      0.1830455415E+01
          0                 4           2             4    7     1      -0.5636819674E-03       4    7    1        -0.3198517867E-01      0.7289561080E-01
          0                 5           1             5    8     1       0.2459763357E-04       5    8    1         0.1421881063E-02      0.1760334004E-02

    ------------------------------------------------
       NWT REQUIRED            5 OUTER ITERATIONS 
       AND A TOTAL OF          9 INNER ITERATIONS.
    ------------------------------------------------

 NO OUTPUT CONTROL FOR STRESS PERIOD   34   TIME STEP   24
 
 SOLVING FOR HEAD 
                                                   Max.-Head-Change                         Max.-Flux-Residual
  Residual-Control   Outer-Iter.   Inner-Iter.     Column Row Layer    Maximum-Head-Change  Column Row Layer    Maximum-Flux-Residual          L2-NORM 
          0                 1           2             4    7     1       0.6014728628E-01       4    7    1         0.3161714161E+01      0.6495386281E+01
          0                 2           2             4    7     1      -0.1024575046E-01       4    7    1        -0.5521130751E+00      0.1169312338E+01
          0                 3           2             4    7     1       0.4744003779E-02       4    7    1         0.2618720010E+00      0.6167888362E+00
          0                 4           2             5    8     1       0.4760470386E-03       5    8    1         0.2807963111E-01      0.3646203133E-01
          0                 5           1             5    8     1       0.4424491660E-04       5    8    1         0.2605296887E-02      0.4426948765E-02

    ------------------------------------------------
       NWT REQUIRED            5 OUTER ITERATIONS 
       AND A TOTAL OF          9 INNER ITERATIONS.
    ------------------------------------------------

 NO OUTPUT CONTROL FOR STRESS PERIOD   34   TIME STEP   25
 
 SOLVING FOR HEAD 
                                                   Max.-Head-Change                         Max.-Flux-Residual
  Residual-Control   Outer-Iter.   Inner-Iter.     Column Row Layer    Maximum-Head-Change  Column Row Layer    Maximum-Flux-Residual          L2-NORM 
          0                 1           2             4    7     1       0.5943463086E-01       4    7    1         0.3125239341E+01      0.6372496574E+01
          0                 2           2             4    7     1      -0.3490747497E-01       4    7    1        -0.1875647901E+01      0.4368871646E+01
          0                 3           2             4    7     1       0.1441292799E-01       4    7    1         0.7953359253E+00      0.1860171866E+01
          0                 4           2             4    7     1      -0.5731783632E-03       4    7    1        -0.3252909277E-01      0.7709739829E-01
          0                 5           1             5    8     1       0.5189602424E-04       5    8    1         0.3013504551E-02      0.3192943406E-02

    ------------------------------------------------
       NWT REQUIRED            5 OUTER ITERATIONS 
       AND A TOTAL OF          9 INNER ITERATIONS.
    ------------------------------------------------

 NO OUTPUT CONTROL FOR STRESS PERIOD   34   TIME STEP   26
 
 SOLVING FOR HEAD 
                                                   Max.-Head-Change                         Max.-Flux-Residual
  Residual-Control   Outer-Iter.   Inner-Iter.     Column Row Layer    Maximum-Head-Change  Column Row Layer    Maximum-Flux-Residual          L2-NORM 
          0                 1           2             4    7     1       0.5879787560E-01       4    7    1         0.3092279238E+01      0.6290997176E+01
          0                 2           2             4    7     1      -0.1060268118E-01       4    7    1        -0.5713714596E+00      0.1208518802E+01
          0                 3           2             4    7     1       0.5244812069E-02       4    7    1         0.2895084110E+00      0.6828716322E+00
          0                 4           2             5    8     1       0.5005456297E-03       5    8    1         0.2959377444E-01      0.4181691442E-01
          0                 5           1             5    8     1       0.7067008197E-04       5    8    1         0.4105138405E-02      0.5503513419E-02

    ------------------------------------------------
       NWT REQUIRED            5 OUTER ITERATIONS 
       AND A TOTAL OF          9 INNER ITERATIONS.
    ------------------------------------------------

 NO OUTPUT CONTROL FOR STRESS PERIOD   34   TIME STEP   27
 
 SOLVING FOR HEAD 
                                                   Max.-Head-Change                         Max.-Flux-Residual
  Residual-Control   Outer-Iter.   Inner-Iter.     Column Row Layer    Maximum-Head-Change  Column Row Layer    Maximum-Flux-Residual          L2-NORM 
          0                 1           2             4    7     1       0.5807617114E-01       4    7    1         0.3055134291E+01      0.6175374801E+01
          0                 2           2             4    7     1      -0.3203117946E-01       4    7    1        -0.1721378697E+01      0.3988155711E+01
          0                 3           2             4    7     1       0.1688642159E-01       4    7    1         0.9317959062E+00      0.2192307500E+01
          0                 4           2             5    8     1       0.1263958227E-02       5    8    1         0.7487069364E-01      0.1138479937E+00
          0                 5           1             5    8     1       0.1626094915E-03       5    8    1         0.9467394415E-02      0.9548240076E-02
          0                 6           1             5    8     1       0.2091853074E-04       5    8    1         0.1219470079E-02      0.1219962314E-02

    ------------------------------------------------
       NWT REQUIRED            6 OUTER ITERATIONS 
       AND A TOTAL OF         10 INNER ITERATIONS.
    ------------------------------------------------

 NO OUTPUT CONTROL FOR STRESS PERIOD   34   TIME STEP   28
 
 SOLVING FOR HEAD 
                                                   Max.-Head-Change                         Max.-Flux-Residual
  Residual-Control   Outer-Iter.   Inner-Iter.     Column Row Layer    Maximum-Head-Change  Column Row Layer    Maximum-Flux-Residual          L2-NORM 
          0                 1           2             4    7     1       0.5740565185E-01       4    7    1         0.3020344659E+01      0.6089130383E+01
          0                 2           2             4    7     1      -0.1453891774E-01       4    7    1        -0.7826845015E+00      0.1704866281E+01
          0                 3           2             4    7     1       0.9537624210E-02       4    7    1         0.5263427529E+00      0.1250095910E+01
          0                 4           2             5    8     1       0.9857509361E-03       5    8    1         0.5813037845E-01      0.7500498280E-01
          0                 5           2             4    7     1      -0.4178763326E-03       5    6    1        -0.2370153617E-01      0.5555522745E-01
          0                 6           1             5    8     1      -0.1417632637E-03       5    8    1        -0.8333477334E-02      0.1665468846E-01
          0                 7           2             4    7     1       0.5151073518E-03       5    7    1         0.3001959162E-01      0.7356826403E-01
          0                 8           1             5    8     1       0.1219470171E-03       5    8    1         0.7430699550E-02      0.9780468451E-02
          0                 9           1             5    8     1       0.4800793007E-04       5    8    1         0.2907980481E-02      0.4898777777E-02

    ------------------------------------------------
       NWT REQUIRED            9 OUTER ITERATIONS 
       AND A TOTAL OF         15 INNER ITERATIONS.
    ------------------------------------------------

 NO OUTPUT CONTROL FOR STRESS PERIOD   34   TIME STEP   29
 
 SOLVING FOR HEAD 
                                                   Max.-Head-Change                         Max.-Flux-Residual
  Residual-Control   Outer-Iter.   Inner-Iter.     Column Row Layer    Maximum-Head-Change  Column Row Layer    Maximum-Flux-Residual          L2-NORM 
          0                 1           2             4    7     1       0.5667862089E-01       4    7    1         0.2982759806E+01      0.5980369351E+01
          0                 2           2             4    7     1      -0.2842081249E-01       4    7    1        -0.1527690786E+01      0.3512669265E+01
          0                 3           2             4    7     1       0.2002051348E-01       4    7    1         0.1104688301E+01      0.2621573797E+01
          0                 4           2             5    8     1       0.1998772652E-02       5    8    1         0.1179393067E+00      0.1558310525E+00
          0                 5           1             5    8     1       0.2571438393E-03       5    8    1         0.1497722565E-01      0.1504984589E-01
          0                 6           1             5    8     1       0.3307966703E-04       5    8    1         0.1928497612E-02      0.1928933319E-02

    ------------------------------------------------
       NWT REQUIRED            6 OUTER ITERATIONS 
       AND A TOTAL OF         10 INNER ITERATIONS.
    ------------------------------------------------

 NO OUTPUT CONTROL FOR STRESS PERIOD   34   TIME STEP   30



 STREAM LISTING     PERIOD     34   STEP       30

 LAYER ROW COL. STREAM  RCH.  FLOW INTO     FLOW TO   FLOW OUT OF   OVRLND.     DIRECT     STREAM       STREAM     STREAM     STREAM   STREAMBED  STREAMBED
                SEG.NO.  NO.  STRM. RCH.    AQUIFER    STRM. RCH.    RUNOFF     PRECIP       ET          HEAD       DEPTH      WIDTH   CONDCTNC.   GRADIENT

   1    1    1     1     1    1.7624E+01  2.0521E-01   1.7419E+01  0.000E+00  0.000E+00  0.000E+00  1.09411E+03  1.059E+00  1.124E+01  5.056E-02  1.353E+00
   1    2    2     1     2    1.7419E+01  3.1648E-01   1.7103E+01  0.000E+00  0.000E+00  0.000E+00  1.08911E+03  1.054E+00  1.115E+01  7.807E-02  1.351E+00
   1    3    3     1     3    1.7103E+01  2.6863E-01   1.6834E+01  0.000E+00  0.000E+00  0.000E+00  1.08347E+03  1.049E+00  1.106E+01  6.635E-02  1.350E+00
   1    3    4     1     4    1.6834E+01  2.4632E-01   1.6588E+01  0.000E+00  0.000E+00  0.000E+00  1.07845E+03  1.044E+00  1.097E+01  6.091E-02  1.348E+00
   1    4    5     2     1    1.4588E+01  3.0175E-01   1.4286E+01  0.000E+00  0.000E+00  0.000E+00  1.07280E+03  8.686E-01  1.200E+01  7.800E-02  1.290E+00
   1    5    6     2     2    1.4286E+01  2.3154E-01   1.4055E+01  0.000E+00  0.000E+00  0.000E+00  1.06737E+03  8.590E-01  1.200E+01  6.000E-02  1.286E+00
   1    6    6     2     3    1.4055E+01  2.3103E-01   1.3824E+01  0.000E+00  0.000E+00  0.000E+00  1.06264E+03  8.505E-01  1.200E+01  6.000E-02  1.284E+00
   1    7    6     2     4    1.3824E+01  2.3052E-01   1.3593E+01  0.000E+00  0.000E+00  0.000E+00  1.05792E+03  8.420E-01  1.200E+01  6.000E-02  1.281E+00
   1    8    6     2     5    1.3593E+01  2.3001E-01   1.3363E+01  0.000E+00  0.000E+00  0.000E+00  1.05319E+03  8.335E-01  1.200E+01  6.000E-02  1.278E+00
   1    3    5     3     1    2.0000E+00  2.8252E-01   1.7175E+00  0.000E+00  0.000E+00  0.000E+00  1.07555E+03  1.909E+00  9.636E+00  7.227E-02  1.955E+00
   1    3    6     3     2    1.7175E+00  2.4905E-01   1.4684E+00  0.000E+00  0.000E+00  0.000E+00  1.07264E+03  1.727E+00  8.909E+00  6.682E-02  1.864E+00
   1    3    7     3     3    1.4684E+00  1.9718E-01   1.2712E+00  0.000E+00  0.000E+00  0.000E+00  1.06987E+03  1.555E+00  8.218E+00  5.547E-02  1.777E+00
   1    4    8     3     4    1.2712E+00  2.2567E-01   1.0456E+00  0.000E+00  0.000E+00  0.000E+00  1.06682E+03  1.364E+00  7.455E+00  6.709E-02  1.682E+00
   1    5    8     3     5    1.0456E+00  1.5790E-01   8.8768E-01  0.000E+00  0.000E+00  0.000E+00  1.06362E+03  1.164E+00  6.655E+00  4.991E-02  1.582E+00
   1    6    8     3     6    8.8768E-01  5.5980E-02   8.3170E-01  0.000E+00  0.000E+00  0.000E+00  1.06158E+03  1.036E+00  6.145E+00  1.844E-02  1.518E+00
   1    5   10     4     1    1.0000E+01  9.0919E-02   9.9091E+00  0.000E+00  0.000E+00  0.000E+00  1.07836E+03  6.368E-01  1.000E+01  2.500E-02  1.212E+00
   1    5    9     4     2    9.9091E+00  1.8158E-01   9.7275E+00  0.000E+00  0.000E+00  0.000E+00  1.07154E+03  6.315E-01  1.000E+01  5.000E-02  1.211E+00
   1    6    8     4     3    9.7275E+00  1.2689E-01   9.6006E+00  0.000E+00  0.000E+00  0.000E+00  1.06381E+03  6.256E-01  1.000E+01  3.500E-02  1.209E+00
   1    6    8     5     1    1.0432E+01  2.2686E-01   1.0205E+01  0.000E+00  0.000E+00  0.000E+00  1.05868E+03  6.790E-01  1.542E+01  6.166E-02  1.226E+00
   1    7    7     5     2    1.0205E+01  2.7894E-01   9.9265E+00  0.000E+00  0.000E+00  0.000E+00  1.05417E+03  6.732E-01  1.519E+01  7.594E-02  1.224E+00
   1    8    7     5     3    9.9265E+00  1.9221E-01   9.7343E+00  0.000E+00  0.000E+00  0.000E+00  1.04992E+03  6.676E-01  1.497E+01  5.241E-02  1.223E+00
   1    8    6     5     4    9.7343E+00  1.3577E-01   9.5985E+00  0.000E+00  0.000E+00  0.000E+00  1.04691E+03  6.637E-01  1.482E+01  3.706E-02  1.221E+00
   1    9    6     6     1    9.5985E+00  2.2097E-01   9.3776E+00  0.000E+00  0.000E+00  0.000E+00  1.04341E+03  6.828E-01  1.200E+01  6.000E-02  1.228E+00
   1   10    7     6     2    9.3776E+00  2.2039E-01   9.1572E+00  0.000E+00  0.000E+00  0.000E+00  1.03885E+03  6.732E-01  1.200E+01  6.000E-02  1.224E+00
   1   11    7     6     3    9.1572E+00  2.1981E-01   8.9374E+00  0.000E+00  0.000E+00  0.000E+00  1.03430E+03  6.636E-01  1.200E+01  6.000E-02  1.221E+00
   1   12    7     6     4    8.9374E+00  2.1923E-01   8.7181E+00  0.000E+00  0.000E+00  0.000E+00  1.02974E+03  6.539E-01  1.200E+01  6.000E-02  1.218E+00
   1   13    7     6     5    8.7181E+00 -3.9934E-03   8.7221E+00  0.000E+00  0.000E+00  0.000E+00  1.02656E+03  6.491E-01  1.200E+01  2.400E-01 -5.546E-03
   1   14    9     7     1    1.5000E+02  1.3876E+00   1.4861E+02  0.000E+00  0.000E+00  0.000E+00  1.03987E+03  2.288E+00  5.529E+01  5.593E-01  8.270E-01
   1   13    8     7     2    1.4861E+02  1.9966E+00   1.4662E+02  0.000E+00  0.000E+00  0.000E+00  1.03478E+03  2.279E+00  5.525E+01  6.147E-01  1.083E+00
   1   13    7     7     3    1.4662E+02  1.7383E+00   1.4488E+02  0.000E+00  0.000E+00  0.000E+00  1.02969E+03  2.269E+00  5.521E+01  5.584E-01  1.038E+00
   1   13    6     8     1    1.5360E+02  1.0897E+00   1.5251E+02  0.000E+00  0.000E+00  0.000E+00  1.02471E+03  2.838E+00  4.115E+01  4.194E-01  8.661E-01
   1   13    5     8     2    1.5251E+02  3.4503E-01   1.5216E+02  0.000E+00  0.000E+00  0.000E+00  1.01846E+03  2.833E+00  4.108E+01  4.186E-01  2.747E-01
   1   13    4     8     3    1.5216E+02 -1.9030E+00   1.5407E+02  0.000E+00  0.000E+00  0.000E+00  1.01221E+03  2.839E+00  4.116E+01  4.194E+00 -1.512E-01
   1   13    3     8     4    1.5407E+02 -3.4169E+00   1.5748E+02  0.000E+00  0.000E+00  0.000E+00  1.00598E+03  2.857E+00  4.143E+01  4.222E+00 -2.698E-01
   1   13    2     8     5    1.5748E+02 -2.5931E+00   1.6008E+02  0.000E+00  0.000E+00  0.000E+00  9.99753E+02  2.878E+00  4.172E+01  4.252E+00 -2.033E-01
   1   13    1     8     6    1.6008E+02 -2.0076E+00   1.6209E+02  0.000E+00  0.000E+00  0.000E+00  9.94768E+02  2.893E+00  4.195E+01  2.565E+00 -2.609E-01
   1    8    6     9     1    1.3363E+01  0.0000E+00   1.3363E+01  0.000E+00  0.000E+00  0.000E+00  1.08145E+03  2.697E+00  4.000E+00  0.000E+00  1.899E+00
   1    8    5     9     2    1.3363E+01  0.0000E+00   1.3363E+01  0.000E+00  0.000E+00  0.000E+00  1.08095E+03  2.697E+00  4.000E+00  0.000E+00  1.899E+00





UNSATURATED ZONE PACKAGE VOLUMETRIC BUDGET FOR  TIME STEP    30 STRESS PERIOD   34
  ------------------------------------------------------------------------------



     CUMULATIVE VOLUMES      L**3       RATES FOR THIS TIME STEP      L**3/T
     ------------------                 ------------------------

           IN:                                      IN:
           ---                                      ---
        INFILTRATION =  1823475495.7939          INFILTRATION =          19.1607

          OUT:                                     OUT:
          ----                                     ----
              UZF ET =  1478485225.1072                UZF ET =          15.3575
        UZF RECHARGE =     9353086.0348          UZF RECHARGE =           0.1941

            IN - OUT =   335637184.6519              IN - OUT =           3.6091

          STORAGE:                                 STORAGE:
          --------                                 --------
      STORAGE CHANGE =   335637157.0906        STORAGE CHANGE =           3.6091

 PERCENT DISCREPANCY IS DIFFERENCE BETWEEN IN-OUT MINUS CHANGE IN STORAGE
 DIVIDED BY THE AVERAGE OF IN AND OUT TIMES 100

 PERCENT DISCREPANCY =           0.00     PERCENT DISCREPANCY =           0.00






1
  VOLUMETRIC BUDGET FOR AGRICULTURAL FIELDS AT  END OF TIME STEP   30, STRESS PERIOD  34
  ------------------------------------------------------------------------------

     CUMULATIVE VOLUMES      L**3       RATES FOR THIS TIME STEP      L**3/T
     ------------------                 ------------------------

           IN:                                      IN:
           ---                                      ---
               AG WELLS  =   871993856.0000                 AG WELLS  =           1.3900
      DIVERSION SEGMENTS =   569243456.0000        DIVERSION SEGMENTS =          13.3630
           GW IRRIGATION =           0.0000             GW IRRIGATION =           0.0000
           SW IRRIGATION =           0.0000             SW IRRIGATION =           0.0000
        SYSTEM LOSSES GW =           0.0000          SYSTEM LOSSES GW =           0.0000
        SYSTEM LOSSES SW =           0.0000          SYSTEM LOSSES SW =           0.0000

                TOTAL IN =  1441237248.0000                  TOTAL IN =          14.7529

          OUT:                                     OUT:
          ----                                     ----
               AG WELLS  =           0.0000                 AG WELLS  =           0.0000
      DIVERSION SEGMENTS =           0.0000        DIVERSION SEGMENTS =           0.0000
           GW IRRIGATION =   871993856.0000             GW IRRIGATION =           1.3900
           SW IRRIGATION =   569254656.0000             SW IRRIGATION =          13.3632
        SYSTEM LOSSES GW =           0.0000          SYSTEM LOSSES GW =           0.0000
        SYSTEM LOSSES SW =           0.0000          SYSTEM LOSSES SW =           0.0000

               TOTAL OUT =  1441248512.0000                 TOTAL OUT =          14.7532

                IN - OUT =      -11264.0000                  IN - OUT =      -2.6703E-04

     PERCENT DISCREPANCY =          -0.00         PERCENT DISCREPANCY =          -0.00



1
  VOLUMETRIC BUDGET FOR ENTIRE MODEL AT END OF TIME STEP   30, STRESS PERIOD  34
  ------------------------------------------------------------------------------

     CUMULATIVE VOLUMES      L**3       RATES FOR THIS TIME STEP      L**3/T
     ------------------                 ------------------------

           IN:                                      IN:
           ---                                      ---
             STORAGE     =  1244586880.0000               STORAGE     =          11.5228
       CONSTANT HEAD     =           0.0000         CONSTANT HEAD     =           0.0000
     HEAD DEP BOUNDS     =    25048562.0000       HEAD DEP BOUNDS     =           0.2893
      STREAM LEAKAGE     =  1032045952.0000        STREAM LEAKAGE     =          12.1005
        UZF RECHARGE     =     9353086.0000          UZF RECHARGE     =           0.1941
               GW ET     =           0.0000                 GW ET     =           0.0000
     SURFACE LEAKAGE     =           0.0000       SURFACE LEAKAGE     =           0.0000
           AG WELLS      =           0.0000             AG WELLS      =           0.0000

                TOTAL IN =  2311034368.0000                  TOTAL IN =          24.1067

          OUT:                                     OUT:
          ----                                     ----
             STORAGE     =   541987520.0000               STORAGE     =          12.5050
       CONSTANT HEAD     =           0.0000         CONSTANT HEAD     =           0.0000
     HEAD DEP BOUNDS     =    25009592.0000       HEAD DEP BOUNDS     =           0.2869
      STREAM LEAKAGE     =   872051264.0000        STREAM LEAKAGE     =           9.9246
        UZF RECHARGE     =           0.0000          UZF RECHARGE     =           0.0000
               GW ET     =           0.0000                 GW ET     =           0.0000
     SURFACE LEAKAGE     =           0.0000       SURFACE LEAKAGE     =           0.0000
           AG WELLS      =   871993856.0000             AG WELLS      =           1.3900

               TOTAL OUT =  2311042304.0000                 TOTAL OUT =          24.1065

                IN - OUT =       -7936.0000                  IN - OUT =       2.5940E-04

     PERCENT DISCREPANCY =          -0.00         PERCENT DISCREPANCY =           0.00






         TIME SUMMARY AT END OF TIME STEP   30 IN STRESS PERIOD   34
                    SECONDS     MINUTES      HOURS       DAYS        YEARS
                    -----------------------------------------------------------
   TIME STEP LENGTH  87667.      1461.1      24.352      1.0147     2.77799E-03
 STRESS PERIOD TIME 2.63000E+06  43833.      730.56      30.440     8.33397E-02
         TOTAL TIME 8.68762E+07 1.44794E+06  24132.      1005.5      2.7529    
1
1
                            STRESS PERIOD NO.   35, LENGTH =   2630000.    
                            -----------------------------------------------

                              NUMBER OF TIME STEPS =    30

                               MULTIPLIER FOR DELT =     1.000

                            INITIAL TIME STEP SIZE =   87666.66    

 REUSING NON-PARAMETER GHB CELLS FROM LAST STRESS PERIOD

      2 GHB CELLS

 REUSING STREAM SEGMENT DATA FROM LAST STRESS PERIOD



            AREAL INFILTRATION RATE
 READING ON UNIT   19 WITH FORMAT: (10F4.0)            

            1           2           3           4           5           6           7           8           9          10
 ........................................................................................................................
   1   1.2000E-09   0.000       0.000       0.000       0.000       0.000       0.000       0.000       0.000       0.000    
   2   2.1000E-09  2.0000E-09  8.0000E-10  8.5000E-09   0.000       0.000       0.000       0.000       0.000       0.000    
   3   5.0000E-10  1.1000E-09  8.8000E-09  5.5000E-09   0.000       0.000       0.000       0.000       0.000       0.000    
   4   8.5000E-09  1.1000E-09  1.1000E-09  1.1000E-09  2.0000E-09   0.000       0.000       0.000       0.000       0.000    
   5   8.5000E-09  1.1000E-09  1.1000E-09  1.1000E-09  1.1000E-09   0.000       0.000       0.000       0.000       0.000    
   6   8.5000E-09  5.2000E-09  2.1000E-09  1.1000E-09  1.5000E-09   0.000       0.000       0.000       0.000       0.000    
   7   8.5000E-09  5.2000E-09  2.1000E-09  1.2000E-09  2.0000E-09   0.000       0.000       0.000       0.000       0.000    
   8   5.0000E-10  5.2000E-09  2.1000E-09  1.2000E-09  5.0000E-09   0.000       0.000       0.000       0.000       0.000    
   9   5.0000E-10  5.2000E-09  2.1000E-09  1.2000E-09  5.0000E-09   0.000       0.000       0.000       0.000       0.000    
  10   5.0000E-10  5.2000E-09  2.1000E-09  1.2000E-09  5.8000E-09   0.000       0.000       0.000       0.000       0.000    
  11   1.0000E-10  1.1000E-09  1.1000E-09  1.2000E-09  5.0000E-09   0.000       0.000       0.000       0.000       0.000    
  12   1.1000E-09  1.1000E-09  1.1000E-09  1.1000E-09  2.0000E-09   0.000       0.000       0.000       0.000       0.000    
  13   1.1000E-09  2.2000E-09  2.2000E-09  2.1000E-09  1.0000E-09   0.000       0.000       0.000       0.000       0.000    
  14   2.0000E-10  5.5000E-09  5.5000E-09  5.2000E-09  1.0000E-09   0.000       0.000       0.000       0.000       0.000    
  15    0.000      8.8000E-09  8.8000E-09   0.000       0.000       0.000       0.000       0.000       0.000       0.000    

                  ET RATE =  5.000000E-09

 USING ET EXTINCTION DEPTH FROM PREVIOUS STRESS PERIOD. CURRENT PERIOD IS:      35

 USING EXTINCTION WATER CONTENT FROM PREVIOUS STRESS PERIOD. CURRENT PERIOD IS:      35

 USING AIR ENTRY PRESSURE FROM PREVIOUS STRESS PERIOD. CURRENT PERIOD IS:      35

 USING ROOT PRESSURE HEAD FROM PREVIOUS STRESS PERIOD. CURRENT PERIOD IS:      35

 USING ROOT ACTIVITY FROM PREVIOUS STRESS PERIOD. CURRENT PERIOD IS:      35

 PROCESSING AG STRESS PERIOD DATA

 READING AG STRESS PERIOD DATA

 READING IRRIGATION SEGMENT

 READING IRRIGATION WELL

 READING SUPPLEMENTAL WELL

 END PROCESSING AG STRESS PERIOD DATA OPTIONS
 
 SOLVING FOR HEAD 
                                                   Max.-Head-Change                         Max.-Flux-Residual
  Residual-Control   Outer-Iter.   Inner-Iter.     Column Row Layer    Maximum-Head-Change  Column Row Layer    Maximum-Flux-Residual          L2-NORM 
          0                 1           2             4    7     1       0.5597099252E-01       4    7    1         0.2946025148E+01      0.5886046871E+01
          0                 2           2             4    7     1      -0.5480784864E-02       4    7    1        -0.2966384967E+00      0.6002871972E+00
          0                 3           2             4    7     1       0.3949890618E-03       4    7    1         0.2195891043E-01      0.4466746012E-01
          0                 4           1             5    8     1       0.1454633335E-04       5    8    1         0.8222041515E-03      0.1775549908E-02

    ------------------------------------------------
       NWT REQUIRED            4 OUTER ITERATIONS 
       AND A TOTAL OF          7 INNER ITERATIONS.
    ------------------------------------------------

 NO OUTPUT CONTROL FOR STRESS PERIOD   35   TIME STEP    1
 
 SOLVING FOR HEAD 
                                                   Max.-Head-Change                         Max.-Flux-Residual
  Residual-Control   Outer-Iter.   Inner-Iter.     Column Row Layer    Maximum-Head-Change  Column Row Layer    Maximum-Flux-Residual          L2-NORM 
          0                 1           2             4    7     1       0.5524195311E-01       4    7    1         0.2908196405E+01      0.5780946485E+01
          0                 2           2             4    7     1      -0.6266628541E-02       4    7    1        -0.3388328672E+00      0.6722212548E+00
          0                 3           2             4    7     1       0.1297084333E-02       4    7    1         0.7172815405E-01      0.1615864539E+00
          0                 4           1             5    8     1       0.7617609412E-04       5    8    1         0.4286482654E-02      0.7578908103E-02

    ------------------------------------------------
       NWT REQUIRED            4 OUTER ITERATIONS 
       AND A TOTAL OF          7 INNER ITERATIONS.
    ------------------------------------------------

 NO OUTPUT CONTROL FOR STRESS PERIOD   35   TIME STEP    2
 
 SOLVING FOR HEAD 
                                                   Max.-Head-Change                         Max.-Flux-Residual
  Residual-Control   Outer-Iter.   Inner-Iter.     Column Row Layer    Maximum-Head-Change  Column Row Layer    Maximum-Flux-Residual          L2-NORM 
          0                 1           2             4    7     1       0.5451315754E-01       4    7    1         0.2870318744E+01      0.5682397906E+01
          0                 2           2             4    7     1      -0.6118516700E-02       4    7    1        -0.3309004041E+00      0.6535573518E+00
          0                 3           2             4    7     1       0.1211870311E-02       4    7    1         0.6702822859E-01      0.1503352101E+00
          0                 4           1             5    8     1       0.7043682189E-04       5    8    1         0.3964315957E-02      0.7042770159E-02

    ------------------------------------------------
       NWT REQUIRED            4 OUTER ITERATIONS 
       AND A TOTAL OF          7 INNER ITERATIONS.
    ------------------------------------------------

 NO OUTPUT CONTROL FOR STRESS PERIOD   35   TIME STEP    3
 
 SOLVING FOR HEAD 
                                                   Max.-Head-Change                         Max.-Flux-Residual
  Residual-Control   Outer-Iter.   Inner-Iter.     Column Row Layer    Maximum-Head-Change  Column Row Layer    Maximum-Flux-Residual          L2-NORM 
          0                 1           2             4    7     1       0.5378565845E-01       4    7    1         0.2832451281E+01      0.5586499385E+01
          0                 2           2             4    7     1      -0.6073941229E-02       4    7    1        -0.3285184474E+00      0.6467491762E+00
          0                 3           2             4    7     1       0.1234296438E-02       4    7    1         0.6826630217E-01      0.1532742145E+00
          0                 4           1             5    8     1       0.7225090117E-04       5    8    1         0.4066074142E-02      0.7191180525E-02

    ------------------------------------------------
       NWT REQUIRED            4 OUTER ITERATIONS 
       AND A TOTAL OF          7 INNER ITERATIONS.
    ------------------------------------------------

 NO OUTPUT CONTROL FOR STRESS PERIOD   35   TIME STEP    4
 
 SOLVING FOR HEAD 
                                                   Max.-Head-Change                         Max.-Flux-Residual
  Residual-Control   Outer-Iter.   Inner-Iter.     Column Row Layer    Maximum-Head-Change  Column Row Layer    Maximum-Flux-Residual          L2-NORM 
          0                 1           2             4    7     1       0.5306043839E-01       4    7    1         0.2794650986E+01      0.5493478029E+01
          0                 2           2             4    7     1      -0.6020872135E-02       4    7    1        -0.3256754833E+00      0.6392713510E+00
          0                 3           2             4    7     1       0.1247666072E-02       4    7    1         0.6900437779E-01      0.1550347311E+00
          0                 4           1             5    8     1       0.7342569938E-04       5    8    1         0.4131238099E-02      0.7282799081E-02

    ------------------------------------------------
       NWT REQUIRED            4 OUTER ITERATIONS 
       AND A TOTAL OF          7 INNER ITERATIONS.
    ------------------------------------------------

 NO OUTPUT CONTROL FOR STRESS PERIOD   35   TIME STEP    5
 
 SOLVING FOR HEAD 
                                                   Max.-Head-Change                         Max.-Flux-Residual
  Residual-Control   Outer-Iter.   Inner-Iter.     Column Row Layer    Maximum-Head-Change  Column Row Layer    Maximum-Flux-Residual          L2-NORM 
          0                 1           2             4    7     1       0.5233851776E-01       4    7    1         0.2756976077E+01      0.5403199009E+01
          0                 2           2             4    7     1      -0.5960010312E-02       4    7    1        -0.3224096215E+00      0.6311744662E+00
          0                 3           2             4    7     1       0.1251407307E-02       4    7    1         0.6921094113E-01      0.1555373014E+00
          0                 4           1             5    8     1       0.7412315003E-04       5    8    1         0.4169666146E-02      0.7296672955E-02

    ------------------------------------------------
       NWT REQUIRED            4 OUTER ITERATIONS 
       AND A TOTAL OF          7 INNER ITERATIONS.
    ------------------------------------------------

 NO OUTPUT CONTROL FOR STRESS PERIOD   35   TIME STEP    6
 
 SOLVING FOR HEAD 
                                                   Max.-Head-Change                         Max.-Flux-Residual
  Residual-Control   Outer-Iter.   Inner-Iter.     Column Row Layer    Maximum-Head-Change  Column Row Layer    Maximum-Flux-Residual          L2-NORM 
          0                 1           2             4    7     1       0.5162042463E-01       4    7    1         0.2719458045E+01      0.5315532114E+01
          0                 2           2             4    7     1      -0.5905608235E-02       4    7    1        -0.3196103772E+00      0.6232398416E+00
          0                 3           2             4    7     1       0.1246943023E-02       4    7    1         0.6897393018E-01      0.1548928376E+00
          0                 4           1             5    8     1       0.7536737694E-04       5    8    1         0.4235664475E-02      0.7164116834E-02

    ------------------------------------------------
       NWT REQUIRED            4 OUTER ITERATIONS 
       AND A TOTAL OF          7 INNER ITERATIONS.
    ------------------------------------------------

 NO OUTPUT CONTROL FOR STRESS PERIOD   35   TIME STEP    7
 
 SOLVING FOR HEAD 
                                                   Max.-Head-Change                         Max.-Flux-Residual
  Residual-Control   Outer-Iter.   Inner-Iter.     Column Row Layer    Maximum-Head-Change  Column Row Layer    Maximum-Flux-Residual          L2-NORM 
          0                 1           2             4    7     1       0.5088278856E-01       4    7    1         0.2681758577E+01      0.5230326583E+01
          0                 2           2             4    7     1      -0.5824152015E-02       4    7    1        -0.3152001795E+00      0.6143362861E+00
          0                 3           2             4    7     1       0.1238558502E-02       4    7    1         0.6850878846E-01      0.1539082639E+00
          0                 4           1             5    8     1       0.7516563112E-04       5    8    1         0.4223905481E-02      0.7113163343E-02

    ------------------------------------------------
       NWT REQUIRED            4 OUTER ITERATIONS 
       AND A TOTAL OF          7 INNER ITERATIONS.
    ------------------------------------------------

 NO OUTPUT CONTROL FOR STRESS PERIOD   35   TIME STEP    8
 
 SOLVING FOR HEAD 
                                                   Max.-Head-Change                         Max.-Flux-Residual
  Residual-Control   Outer-Iter.   Inner-Iter.     Column Row Layer    Maximum-Head-Change  Column Row Layer    Maximum-Flux-Residual          L2-NORM 
          0                 1           2             4    7     1       0.5015917086E-01       4    7    1         0.2643834213E+01      0.5147450986E+01
          0                 2           2             4    7     1      -0.5754235046E-02       4    7    1        -0.3114322158E+00      0.6060084349E+00
          0                 3           2             4    7     1       0.1234387868E-02       4    7    1         0.6827773079E-01      0.1534182427E+00
          0                 4           1             5    8     1       0.7508086161E-04       5    8    1         0.4219066580E-02      0.7096436495E-02

    ------------------------------------------------
       NWT REQUIRED            4 OUTER ITERATIONS 
       AND A TOTAL OF          7 INNER ITERATIONS.
    ------------------------------------------------

 NO OUTPUT CONTROL FOR STRESS PERIOD   35   TIME STEP    9
 
 SOLVING FOR HEAD 
                                                   Max.-Head-Change                         Max.-Flux-Residual
  Residual-Control   Outer-Iter.   Inner-Iter.     Column Row Layer    Maximum-Head-Change  Column Row Layer    Maximum-Flux-Residual          L2-NORM 
          0                 1           2             4    7     1       0.4944234418E-01       4    7    1         0.2606234902E+01      0.5066842398E+01
          0                 2           2             4    7     1      -0.5685331593E-02       4    7    1        -0.3077156938E+00      0.5979501050E+00
          0                 3           2             4    7     1       0.1230743878E-02       4    7    1         0.6807552159E-01      0.1530064625E+00
          0                 4           1             5    8     1       0.7501019411E-04       5    8    1         0.4215078884E-02      0.7084444762E-02

    ------------------------------------------------
       NWT REQUIRED            4 OUTER ITERATIONS 
       AND A TOTAL OF          7 INNER ITERATIONS.
    ------------------------------------------------

 NO OUTPUT CONTROL FOR STRESS PERIOD   35   TIME STEP   10
 
 SOLVING FOR HEAD 
                                                   Max.-Head-Change                         Max.-Flux-Residual
  Residual-Control   Outer-Iter.   Inner-Iter.     Column Row Layer    Maximum-Head-Change  Column Row Layer    Maximum-Flux-Residual          L2-NORM 
          0                 1           2             4    7     1       0.4873276725E-01       4    7    1         0.2568987639E+01      0.4988409045E+01
          0                 2           2             4    7     1      -0.5615841146E-02       4    7    1        -0.3039650277E+00      0.5899694503E+00
          0                 3           2             4    7     1       0.1225383774E-02       4    7    1         0.6777844945E-01      0.1523757631E+00
          0                 4           1             5    8     1       0.7488341507E-04       5    8    1         0.4207767165E-02      0.7057103744E-02

    ------------------------------------------------
       NWT REQUIRED            4 OUTER ITERATIONS 
       AND A TOTAL OF          7 INNER ITERATIONS.
    ------------------------------------------------

 NO OUTPUT CONTROL FOR STRESS PERIOD   35   TIME STEP   11
 
 SOLVING FOR HEAD 
                                                   Max.-Head-Change                         Max.-Flux-Residual
  Residual-Control   Outer-Iter.   Inner-Iter.     Column Row Layer    Maximum-Head-Change  Column Row Layer    Maximum-Flux-Residual          L2-NORM 
          0                 1           2             4    7     1       0.4803097552E-01       4    7    1         0.2532123639E+01      0.4912072802E+01
          0                 2           2             4    7     1      -0.5546700898E-02       4    7    1        -0.3002308408E+00      0.5821566117E+00
          0                 3           2             4    7     1       0.1219519938E-02       4    7    1         0.6745342393E-01      0.1516849475E+00
          0                 4           1             5    8     1       0.7473871783E-04       5    8    1         0.4199400017E-02      0.7024630670E-02

    ------------------------------------------------
       NWT REQUIRED            4 OUTER ITERATIONS 
       AND A TOTAL OF          7 INNER ITERATIONS.
    ------------------------------------------------

 NO OUTPUT CONTROL FOR STRESS PERIOD   35   TIME STEP   12
 
 SOLVING FOR HEAD 
                                                   Max.-Head-Change                         Max.-Flux-Residual
  Residual-Control   Outer-Iter.   Inner-Iter.     Column Row Layer    Maximum-Head-Change  Column Row Layer    Maximum-Flux-Residual          L2-NORM 
          0                 1           2             4    7     1       0.4733717061E-01       4    7    1         0.2495656050E+01      0.4837730259E+01
          0                 2           2             4    7     1      -0.5479492145E-02       4    7    1        -0.2965982599E+00      0.5746738843E+00
          0                 3           2             4    7     1       0.1215285363E-02       4    7    1         0.6721814033E-01      0.1512161493E+00
          0                 4           1             5    8     1       0.7464488117E-04       5    8    1         0.4194054853E-02      0.7007487870E-02

    ------------------------------------------------
       NWT REQUIRED            4 OUTER ITERATIONS 
       AND A TOTAL OF          7 INNER ITERATIONS.
    ------------------------------------------------

 NO OUTPUT CONTROL FOR STRESS PERIOD   35   TIME STEP   13
 
 SOLVING FOR HEAD 
                                                   Max.-Head-Change                         Max.-Flux-Residual
  Residual-Control   Outer-Iter.   Inner-Iter.     Column Row Layer    Maximum-Head-Change  Column Row Layer    Maximum-Flux-Residual          L2-NORM 
          0                 1           2             4    7     1       0.4665178166E-01       4    7    1         0.2459609704E+01      0.4765313112E+01
          0                 2           2             4    7     1      -0.5412467906E-02       4    7    1        -0.2929737752E+00      0.5673162299E+00
          0                 3           2             4    7     1       0.1210240611E-02       4    7    1         0.6693803201E-01      0.1506454773E+00
          0                 4           1             5    8     1       0.7452406328E-04       5    8    1         0.4187111359E-02      0.6982507910E-02

    ------------------------------------------------
       NWT REQUIRED            4 OUTER ITERATIONS 
       AND A TOTAL OF          7 INNER ITERATIONS.
    ------------------------------------------------

 NO OUTPUT CONTROL FOR STRESS PERIOD   35   TIME STEP   14
 
 SOLVING FOR HEAD 
                                                   Max.-Head-Change                         Max.-Flux-Residual
  Residual-Control   Outer-Iter.   Inner-Iter.     Column Row Layer    Maximum-Head-Change  Column Row Layer    Maximum-Flux-Residual          L2-NORM 
          0                 1           2             5    8     1       0.1214401304E+00       5    8    1         0.6639167905E+01      0.8070922621E+01
          0                 2           2             5    8     1       0.4710848224E-01       5    8    1         0.2607408018E+01      0.2666559616E+01
          0                 3           2             5    8     1       0.1948133509E-01       5    8    1         0.1073102171E+01      0.1082596226E+01
          0                 4           2             5    8     1       0.7699716840E-02       5    8    1         0.4249730787E+00      0.4250015310E+00
          0                 5           1             5    8     1       0.3043994013E-02       5    8    1         0.1679712972E+00      0.1679730770E+00
          0                 6           1             5    8     1       0.1204068970E-02       5    8    1         0.6644259197E-01      0.6644333633E-01
          0                 7           1             5    8     1       0.4768280051E-03       5    8    1         0.2631125936E-01      0.2631200657E-01
          0                 8           1             5    8     1       0.1892876536E-03       5    8    1         0.1044414707E-01      0.1044510293E-01
          0                 9           1             5    8     1       0.7552312871E-04       5    8    1         0.4166480108E-02      0.4167908047E-02

    ------------------------------------------------
       NWT REQUIRED            9 OUTER ITERATIONS 
       AND A TOTAL OF         13 INNER ITERATIONS.
    ------------------------------------------------

 NO OUTPUT CONTROL FOR STRESS PERIOD   35   TIME STEP   15
 
 SOLVING FOR HEAD 
                                                   Max.-Head-Change                         Max.-Flux-Residual
  Residual-Control   Outer-Iter.   Inner-Iter.     Column Row Layer    Maximum-Head-Change  Column Row Layer    Maximum-Flux-Residual          L2-NORM 
          0                 1           2             5    8     1       0.1915633581E+00       5    8    1         0.1050075107E+02      0.1149236008E+02
          0                 2           2             5    8     1       0.7481976167E-01       5    8    1         0.4137656559E+01      0.4176149151E+01
          0                 3           2             5    8     1       0.3042065095E-01       5    8    1         0.1676787591E+01      0.1682883456E+01
          0                 4           2             5    8     1       0.1202205219E-01       5    8    1         0.6635235356E+00      0.6635392519E+00
          0                 5           1             5    8     1       0.4751999078E-02       5    8    1         0.2622341400E+00      0.2622362971E+00
          0                 6           1             5    8     1       0.1881190479E-02       5    8    1         0.1037129160E+00      0.1037138531E+00
          0                 7           1             5    8     1       0.7454592722E-03       5    8    1         0.4109709733E-01      0.4109792085E-01
          0                 8           1             5    8     1       0.2959567175E-03       5    8    1         0.1631522777E-01      0.1631619708E-01
          0                 9           1             5    8     1       0.1179587664E-03       5    8    1         0.6502009438E-02      0.6503406381E-02
          0                10           1             5    8     1       0.4739623129E-04       5    8    1         0.2611942208E-02      0.2614138792E-02

    ------------------------------------------------
       NWT REQUIRED           10 OUTER ITERATIONS 
       AND A TOTAL OF         14 INNER ITERATIONS.
    ------------------------------------------------

 NO OUTPUT CONTROL FOR STRESS PERIOD   35   TIME STEP   16
 
 SOLVING FOR HEAD 
                                                   Max.-Head-Change                         Max.-Flux-Residual
  Residual-Control   Outer-Iter.   Inner-Iter.     Column Row Layer    Maximum-Head-Change  Column Row Layer    Maximum-Flux-Residual          L2-NORM 
          0                 1           2             5    8     1       0.1729161338E+00       5    8    1         0.9449613284E+01      0.1063343055E+02
          0                 2           2             5    8     1       0.6753168230E-01       5    8    1         0.3733378631E+01      0.3778981927E+01
          0                 3           2             5    8     1       0.2756773863E-01       5    8    1         0.1517860588E+01      0.1524648624E+01
          0                 4           2             5    8     1       0.1090733491E-01       5    8    1         0.6014458195E+00      0.6014645359E+00
          0                 5           1             5    8     1       0.4316588519E-02       5    8    1         0.2379830513E+00      0.2379857097E+00
          0                 6           1             5    8     1       0.1709156986E-02       5    8    1         0.9423013670E-01      0.9423131203E-01
          0                 7           1             5    8     1       0.6774605117E-03       5    8    1         0.3734891458E-01      0.3734993777E-01
          0                 8           1             5    8     1       0.2691248119E-03       5    8    1         0.1483613765E-01      0.1483733138E-01
          0                 9           1             5    8     1       0.1074078473E-03       5    8    1         0.5920343608E-02      0.5922101977E-02
          0                10           1             5    8     1       0.4327976318E-04       5    8    1         0.2384954992E-02      0.2387819721E-02

    ------------------------------------------------
       NWT REQUIRED           10 OUTER ITERATIONS 
       AND A TOTAL OF         14 INNER ITERATIONS.
    ------------------------------------------------

 NO OUTPUT CONTROL FOR STRESS PERIOD   35   TIME STEP   17
 
 SOLVING FOR HEAD 
                                                   Max.-Head-Change                         Max.-Flux-Residual
  Residual-Control   Outer-Iter.   Inner-Iter.     Column Row Layer    Maximum-Head-Change  Column Row Layer    Maximum-Flux-Residual          L2-NORM 
          0                 1           2             5    8     1       0.1565397783E+00       5    8    1         0.8535960034E+01      0.9928756438E+01
          0                 2           2             5    8     1       0.6105319314E-01       5    8    1         0.3377456022E+01      0.3430968495E+01
          0                 3           2             5    8     1       0.2499942959E-01       5    8    1         0.1376252692E+01      0.1383778165E+01
          0                 4           2             5    8     1       0.9890965582E-02       5    8    1         0.5454189090E+00      0.5454400583E+00
          0                 5           1             5    8     1       0.3914449928E-02       5    8    1         0.2158166793E+00      0.2158197125E+00
          0                 6           1             5    8     1       0.1550108866E-02       5    8    1         0.8546282866E-01      0.8546420441E-01
          0                 7           1             5    8     1       0.6146092421E-03       5    8    1         0.3388427500E-01      0.3388548309E-01
          0                 8           1             5    8     1       0.2443301965E-03       5    8    1         0.1346928205E-01      0.1347075330E-01
          0                 9           1             5    8     1       0.9766375350E-04       5    8    1         0.5383124173E-02      0.5385321677E-02

    ------------------------------------------------
       NWT REQUIRED            9 OUTER ITERATIONS 
       AND A TOTAL OF         13 INNER ITERATIONS.
    ------------------------------------------------

 NO OUTPUT CONTROL FOR STRESS PERIOD   35   TIME STEP   18
 
 SOLVING FOR HEAD 
                                                   Max.-Head-Change                         Max.-Flux-Residual
  Residual-Control   Outer-Iter.   Inner-Iter.     Column Row Layer    Maximum-Head-Change  Column Row Layer    Maximum-Flux-Residual          L2-NORM 
          0                 1           2             5    8     1       0.1420376628E+00       5    8    1         0.7727401640E+01      0.9341007168E+01
          0                 2           2             5    8     1       0.5531650330E-01       5    8    1         0.3062198887E+01      0.3124341646E+01
          0                 3           2             5    8     1       0.2272576046E-01       5    8    1         0.1250883402E+01      0.1259198872E+01
          0                 4           2             5    8     1       0.8991276724E-02       5    8    1         0.4958387205E+00      0.4958619592E+00
          0                 5           1             5    8     1       0.3558504031E-02       5    8    1         0.1961998074E+00      0.1962028108E+00
          0                 6           1             5    8     1       0.1409335861E-02       5    8    1         0.7770451553E-01      0.7770593065E-01
          0                 7           1             5    8     1       0.5589766220E-03       5    8    1         0.3081817323E-01      0.3081952020E-01
          0                 8           1             5    8     1       0.2223802345E-03       5    8    1         0.1225949346E-01      0.1226122047E-01
          0                 9           1             5    8     1       0.8903295901E-04       5    8    1         0.4907388667E-02      0.4909999142E-02

    ------------------------------------------------
       NWT REQUIRED            9 OUTER ITERATIONS 
       AND A TOTAL OF         13 INNER ITERATIONS.
    ------------------------------------------------

 NO OUTPUT CONTROL FOR STRESS PERIOD   35   TIME STEP   19
 
 SOLVING FOR HEAD 
                                                   Max.-Head-Change                         Max.-Flux-Residual
  Residual-Control   Outer-Iter.   Inner-Iter.     Column Row Layer    Maximum-Head-Change  Column Row Layer    Maximum-Flux-Residual          L2-NORM 
          0                 1           2             5    8     1       0.1291846264E+00       5    8    1         0.7011297614E+01      0.8851156435E+01
          0                 2           2             5    8     1       0.5023276268E-01       5    8    1         0.2782743916E+01      0.2854112497E+01
          0                 3           2             5    8     1       0.2071089963E-01       5    8    1         0.1139780335E+01      0.1148929757E+01
          0                 4           2             5    8     1       0.8194081280E-02       5    8    1         0.4519031728E+00      0.4519287615E+00
          0                 5           1             5    8     1       0.3243144071E-02       5    8    1         0.1788183676E+00      0.1788213627E+00
          0                 6           1             5    8     1       0.1284631428E-02       5    8    1         0.7083124164E-01      0.7083271100E-01
          0                 7           1             5    8     1       0.5097036085E-03       5    8    1         0.2810235570E-01      0.2810385836E-01
          0                 8           1             5    8     1       0.2029449518E-03       5    8    1         0.1118821581E-01      0.1119023714E-01
          0                 9           1             5    8     1       0.8139385142E-04       5    8    1         0.4486280185E-02      0.4489370212E-02

    ------------------------------------------------
       NWT REQUIRED            9 OUTER ITERATIONS 
       AND A TOTAL OF         13 INNER ITERATIONS.
    ------------------------------------------------

 NO OUTPUT CONTROL FOR STRESS PERIOD   35   TIME STEP   20
 
 SOLVING FOR HEAD 
                                                   Max.-Head-Change                         Max.-Flux-Residual
  Residual-Control   Outer-Iter.   Inner-Iter.     Column Row Layer    Maximum-Head-Change  Column Row Layer    Maximum-Flux-Residual          L2-NORM 
          0                 1           2             5    8     1       0.1177851233E+00       5    8    1         0.6376655700E+01      0.8442557953E+01
          0                 2           2             5    8     1       0.4572440263E-01       5    8    1         0.2534848599E+01      0.2615940745E+01
          0                 3           2             5    8     1       0.1892407069E-01       5    8    1         0.1041248638E+01      0.1051273645E+01
          0                 4           2             5    8     1       0.7487173095E-02       5    8    1         0.4129408506E+00      0.4129690150E+00
          0                 5           1             5    8     1       0.2963529447E-02       5    8    1         0.1634060587E+00      0.1634090650E+00
          0                 6           1             5    8     1       0.1174075452E-02       5    8    1         0.6473737482E-01      0.6473891816E-01
          0                 7           1             5    8     1       0.4660288140E-03       5    8    1         0.2569493516E-01      0.2569661762E-01
          0                 8           1             5    8     1       0.1857214334E-03       5    8    1         0.1023878590E-01      0.1024110314E-01
          0                 9           1             5    8     1       0.7462777220E-04       5    8    1         0.4113268491E-02      0.4116895730E-02

    ------------------------------------------------
       NWT REQUIRED            9 OUTER ITERATIONS 
       AND A TOTAL OF         13 INNER ITERATIONS.
    ------------------------------------------------

 NO OUTPUT CONTROL FOR STRESS PERIOD   35   TIME STEP   21
 
 SOLVING FOR HEAD 
                                                   Max.-Head-Change                         Max.-Flux-Residual
  Residual-Control   Outer-Iter.   Inner-Iter.     Column Row Layer    Maximum-Head-Change  Column Row Layer    Maximum-Flux-Residual          L2-NORM 
          0                 1           2             5    8     1       0.1076669081E+00       5    8    1         0.5813816075E+01      0.8100887127E+01
          0                 2           2             5    8     1       0.3132730302E-01       5    8    1         0.1741451240E+01      0.1860947334E+01
          0                 3           2             5    8     1       0.1866111527E-02       5    8    1         0.1005342098E+00      0.1761073021E+00
          0                 4           1             5    8     1       0.6430189288E-04       5    8    1         0.3633363064E-02      0.6557818998E-02

    ------------------------------------------------
       NWT REQUIRED            4 OUTER ITERATIONS 
       AND A TOTAL OF          7 INNER ITERATIONS.
    ------------------------------------------------

 NO OUTPUT CONTROL FOR STRESS PERIOD   35   TIME STEP   22
 
 SOLVING FOR HEAD 
                                                   Max.-Head-Change                         Max.-Flux-Residual
  Residual-Control   Outer-Iter.   Inner-Iter.     Column Row Layer    Maximum-Head-Change  Column Row Layer    Maximum-Flux-Residual          L2-NORM 
          0                 1           2             5    8     1      -0.8329727698E-01       5    8    1        -0.4719769251E+01      0.7385724338E+01
          0                 2           2             5    8     1       0.7256229810E-02       5    8    1         0.4253863722E+00      0.7851858129E+00
          0                 3           2             4    8     1       0.1216831520E-02       4    8    1         0.6867732569E-01      0.1452761699E+00
          0                 4           1             4    8     1      -0.4575966888E-04       4    8    1        -0.2648718420E-02      0.5654660392E-02

    ------------------------------------------------
       NWT REQUIRED            4 OUTER ITERATIONS 
       AND A TOTAL OF          7 INNER ITERATIONS.
    ------------------------------------------------

 NO OUTPUT CONTROL FOR STRESS PERIOD   35   TIME STEP   23
 
 SOLVING FOR HEAD 
                                                   Max.-Head-Change                         Max.-Flux-Residual
  Residual-Control   Outer-Iter.   Inner-Iter.     Column Row Layer    Maximum-Head-Change  Column Row Layer    Maximum-Flux-Residual          L2-NORM 
          0                 1           2             5    8     1      -0.7637191473E-01       5    8    1        -0.4329141926E+01      0.6958756121E+01
          0                 2           2             5    8     1       0.6589049807E-02       5    8    1         0.3867016972E+00      0.7458999121E+00
          0                 3           2             4    8     1       0.1202251987E-02       4    8    1         0.6779207040E-01      0.1448080648E+00
          0                 4           1             4    8     1      -0.4532886440E-04       4    8    1        -0.2619821415E-02      0.5681183440E-02

    ------------------------------------------------
       NWT REQUIRED            4 OUTER ITERATIONS 
       AND A TOTAL OF          7 INNER ITERATIONS.
    ------------------------------------------------

 NO OUTPUT CONTROL FOR STRESS PERIOD   35   TIME STEP   24
 
 SOLVING FOR HEAD 
                                                   Max.-Head-Change                         Max.-Flux-Residual
  Residual-Control   Outer-Iter.   Inner-Iter.     Column Row Layer    Maximum-Head-Change  Column Row Layer    Maximum-Flux-Residual          L2-NORM 
          0                 1           2             5    8     1      -0.6998024602E-01       5    8    1        -0.3968763562E+01      0.6572352056E+01
          0                 2           2             5    8     1       0.5965099360E-02       5    8    1         0.3505441818E+00      0.7102903657E+00
          0                 3           2             4    8     1       0.1188481155E-02       4    8    1         0.6695781327E-01      0.1443875501E+00
          0                 4           1             4    8     1      -0.4490390586E-04       4    8    1        -0.2591630855E-02      0.5708825675E-02

    ------------------------------------------------
       NWT REQUIRED            4 OUTER ITERATIONS 
       AND A TOTAL OF          7 INNER ITERATIONS.
    ------------------------------------------------

 NO OUTPUT CONTROL FOR STRESS PERIOD   35   TIME STEP   25
 
 SOLVING FOR HEAD 
                                                   Max.-Head-Change                         Max.-Flux-Residual
  Residual-Control   Outer-Iter.   Inner-Iter.     Column Row Layer    Maximum-Head-Change  Column Row Layer    Maximum-Flux-Residual          L2-NORM 
          0                 1           2             5    8     1      -0.6408677706E-01       5    8    1        -0.3636601192E+01      0.6222821414E+01
          0                 2           2             5    8     1       0.5389997872E-02       5    8    1         0.3172293033E+00      0.6783133582E+00
          0                 3           2             4    8     1       0.1175505516E-02       4    8    1         0.6617378491E-01      0.1440054071E+00
          0                 4           1             4    8     1      -0.4449032066E-04       4    8    1        -0.2564404863E-02      0.5736889647E-02

    ------------------------------------------------
       NWT REQUIRED            4 OUTER ITERATIONS 
       AND A TOTAL OF          7 INNER ITERATIONS.
    ------------------------------------------------

 NO OUTPUT CONTROL FOR STRESS PERIOD   35   TIME STEP   26
 
 SOLVING FOR HEAD 
                                                   Max.-Head-Change                         Max.-Flux-Residual
  Residual-Control   Outer-Iter.   Inner-Iter.     Column Row Layer    Maximum-Head-Change  Column Row Layer    Maximum-Flux-Residual          L2-NORM 
          0                 1           2             5    8     1      -0.5865086144E-01       5    8    1        -0.3330341693E+01      0.5906538226E+01
          0                 2           2             4    7     1      -0.5070658855E-02       5    8    1         0.2865208704E+00      0.6495923422E+00
          0                 3           2             4    7     1       0.1174162379E-02       4    8    1         0.6543997848E-01      0.1436589290E+00
          0                 4           1             4    7     1      -0.4449700416E-04       4    8    1        -0.2538307537E-02      0.5764596107E-02

    ------------------------------------------------
       NWT REQUIRED            4 OUTER ITERATIONS 
       AND A TOTAL OF          7 INNER ITERATIONS.
    ------------------------------------------------

 NO OUTPUT CONTROL FOR STRESS PERIOD   35   TIME STEP   27
 
 SOLVING FOR HEAD 
                                                   Max.-Head-Change                         Max.-Flux-Residual
  Residual-Control   Outer-Iter.   Inner-Iter.     Column Row Layer    Maximum-Head-Change  Column Row Layer    Maximum-Flux-Residual          L2-NORM 
          0                 1           2             4    8     1       0.1669221460E+00       4    8    1         0.9077813229E+01      0.1043943051E+02
          0                 2           2             4    8     1       0.6653818361E-01       4    8    1         0.3611284460E+01      0.3655535663E+01
          0                 3           2             4    8     1       0.2767665446E-01       4    8    1         0.1500530539E+01      0.1506093707E+01
          0                 4           2             4    8     1       0.1115352188E-01       4    8    1         0.6052865211E+00      0.6053046176E+00
          0                 5           2             4    8     1       0.4495796114E-02       4    8    1         0.2439498288E+00      0.2439515424E+00
          0                 6           2             4    8     1       0.1813009113E-02       4    8    1         0.9837760971E-01      0.9837836198E-01
          0                 7           2             4    8     1       0.7318182623E-03       4    8    1         0.3970893044E-01      0.3970967570E-01
          0                 8           2             4    8     1       0.2959730797E-03       4    8    1         0.1605890889E-01      0.1605985058E-01
          0                 9           2             4    8     1       0.1201804619E-03       4    8    1         0.6520098237E-02      0.6521532221E-02
          0                10           1             4    8     1       0.4919619506E-04       4    8    1         0.2668480000E-02      0.2670757540E-02

    ------------------------------------------------
       NWT REQUIRED           10 OUTER ITERATIONS 
       AND A TOTAL OF         19 INNER ITERATIONS.
    ------------------------------------------------

 NO OUTPUT CONTROL FOR STRESS PERIOD   35   TIME STEP   28
 
 SOLVING FOR HEAD 
                                                   Max.-Head-Change                         Max.-Flux-Residual
  Residual-Control   Outer-Iter.   Inner-Iter.     Column Row Layer    Maximum-Head-Change  Column Row Layer    Maximum-Flux-Residual          L2-NORM 
          0                 1           2             4    8     1       0.2135553504E+00       4    8    1         0.1158311551E+02      0.1563071808E+02
          0                 2           2             4    8     1       0.8519759286E-01       4    8    1         0.4623363277E+01      0.5950447188E+01
          0                 3           2             4    8     1       0.3520214696E-01       4    8    1         0.1908255819E+01      0.2435590223E+01
          0                 4           2             4    8     1       0.1419074091E-01       4    8    1         0.7698577925E+00      0.9740688953E+00
          0                 5           2             4    8     1       0.5721625605E-02       4    8    1         0.3103729600E+00      0.3896589582E+00
          0                 6           2             4    8     1       0.2307807181E-02       4    8    1         0.1251898590E+00      0.1559996642E+00
          0                 7           2             4    8     1       0.9315903702E-03       4    8    1         0.5053452231E-01      0.6252234419E-01
          0                 8           2             4    8     1       0.3766746640E-03       4    8    1         0.2043218106E-01      0.2511026000E-01
          0                 9           2             4    8     1       0.1528198376E-03       4    8    1         0.8288846079E-02      0.1012614992E-01
          0                10           1             4    8     1       0.6243009397E-04       4    8    1         0.3385606054E-02      0.4117386363E-02

    ------------------------------------------------
       NWT REQUIRED           10 OUTER ITERATIONS 
       AND A TOTAL OF         19 INNER ITERATIONS.
    ------------------------------------------------

 NO OUTPUT CONTROL FOR STRESS PERIOD   35   TIME STEP   29
 
 SOLVING FOR HEAD 
                                                   Max.-Head-Change                         Max.-Flux-Residual
  Residual-Control   Outer-Iter.   Inner-Iter.     Column Row Layer    Maximum-Head-Change  Column Row Layer    Maximum-Flux-Residual          L2-NORM 
          0                 1           2             5    7     1       0.2028156927E+00       5    7    1         0.1114123803E+02      0.1607177736E+02
          0                 2           2             5    7     1       0.7915291712E-01       5    7    1         0.4376111992E+01      0.6131695341E+01
          0                 3           2             4    8     1       0.3249355839E-01       5    7    1         0.1768506757E+01      0.2499377651E+01
          0                 4           2             4    8     1       0.1309089253E-01       4    8    1         0.7105585029E+00      0.9968219517E+00
          0                 5           2             4    8     1       0.5275117040E-02       4    8    1         0.2862946537E+00      0.3976281047E+00
          0                 6           2             4    8     1       0.2126606549E-02       4    8    1         0.1154183743E+00      0.1587461604E+00
          0                 7           2             4    8     1       0.8581120319E-03       4    8    1         0.4657195834E-01      0.6345039725E-01
          0                 8           2             4    8     1       0.3469226101E-03       4    8    1         0.1882765562E-01      0.2541780185E-01
          0                 9           2             4    8     1       0.1408094209E-03       4    8    1         0.7641109045E-02      0.1022735622E-01
          0                10           1             4    8     1       0.5761256173E-04       4    8    1         0.3125786004E-02      0.4152247035E-02

    ------------------------------------------------
       NWT REQUIRED           10 OUTER ITERATIONS 
       AND A TOTAL OF         19 INNER ITERATIONS.
    ------------------------------------------------

 NO OUTPUT CONTROL FOR STRESS PERIOD   35   TIME STEP   30



 STREAM LISTING     PERIOD     35   STEP       30

 LAYER ROW COL. STREAM  RCH.  FLOW INTO     FLOW TO   FLOW OUT OF   OVRLND.     DIRECT     STREAM       STREAM     STREAM     STREAM   STREAMBED  STREAMBED
                SEG.NO.  NO.  STRM. RCH.    AQUIFER    STRM. RCH.    RUNOFF     PRECIP       ET          HEAD       DEPTH      WIDTH   CONDCTNC.   GRADIENT

   1    1    1     1     1    1.3125E+01  1.7336E-01   1.2951E+01  0.000E+00  0.000E+00  0.000E+00  1.09402E+03  9.718E-01  9.699E+00  4.365E-02  1.324E+00
   1    2    2     1     2    1.2951E+01  2.6707E-01   1.2684E+01  0.000E+00  0.000E+00  0.000E+00  1.08903E+03  9.671E-01  9.617E+00  6.732E-02  1.322E+00
   1    3    3     1     3    1.2684E+01  2.2640E-01   1.2458E+01  0.000E+00  0.000E+00  0.000E+00  1.08338E+03  9.616E-01  9.525E+00  5.715E-02  1.321E+00
   1    3    4     1     4    1.2458E+01  2.0736E-01   1.2250E+01  0.000E+00  0.000E+00  0.000E+00  1.07836E+03  9.568E-01  9.443E+00  5.241E-02  1.319E+00
   1    4    5     2     1    1.0250E+01  2.8870E-01   9.9617E+00  0.000E+00  0.000E+00  0.000E+00  1.07264E+03  7.013E-01  1.200E+01  7.800E-02  1.234E+00
   1    5    6     2     2    9.9617E+00  2.2144E-01   9.7403E+00  0.000E+00  0.000E+00  0.000E+00  1.06720E+03  6.906E-01  1.200E+01  6.000E-02  1.230E+00
   1    6    6     2     3    9.7403E+00  2.2088E-01   9.5194E+00  0.000E+00  0.000E+00  0.000E+00  1.06247E+03  6.813E-01  1.200E+01  6.000E-02  1.227E+00
   1    7    6     2     4    9.5194E+00  2.2031E-01   9.2991E+00  0.000E+00  0.000E+00  0.000E+00  1.05775E+03  6.719E-01  1.200E+01  6.000E-02  1.224E+00
   1    8    6     2     5    9.2991E+00  2.1974E-01   9.0793E+00  0.000E+00  0.000E+00  0.000E+00  1.05302E+03  6.624E-01  1.200E+01  6.000E-02  1.221E+00
   1    3    5     3     1    2.0000E+00  2.8252E-01   1.7175E+00  0.000E+00  0.000E+00  0.000E+00  1.07555E+03  1.909E+00  9.636E+00  7.227E-02  1.955E+00
   1    3    6     3     2    1.7175E+00  2.4905E-01   1.4684E+00  0.000E+00  0.000E+00  0.000E+00  1.07264E+03  1.727E+00  8.909E+00  6.682E-02  1.864E+00
   1    3    7     3     3    1.4684E+00  1.9718E-01   1.2712E+00  0.000E+00  0.000E+00  0.000E+00  1.06987E+03  1.555E+00  8.218E+00  5.547E-02  1.777E+00
   1    4    8     3     4    1.2712E+00  2.2567E-01   1.0456E+00  0.000E+00  0.000E+00  0.000E+00  1.06682E+03  1.364E+00  7.455E+00  6.709E-02  1.682E+00
   1    5    8     3     5    1.0456E+00  1.5790E-01   8.8768E-01  0.000E+00  0.000E+00  0.000E+00  1.06362E+03  1.164E+00  6.655E+00  4.991E-02  1.582E+00
   1    6    8     3     6    8.8768E-01  5.5980E-02   8.3170E-01  0.000E+00  0.000E+00  0.000E+00  1.06158E+03  1.036E+00  6.145E+00  1.844E-02  1.518E+00
   1    5   10     4     1    1.0000E+01  9.0919E-02   9.9091E+00  0.000E+00  0.000E+00  0.000E+00  1.07836E+03  6.368E-01  1.000E+01  2.500E-02  1.212E+00
   1    5    9     4     2    9.9091E+00  1.8158E-01   9.7275E+00  0.000E+00  0.000E+00  0.000E+00  1.07154E+03  6.315E-01  1.000E+01  5.000E-02  1.211E+00
   1    6    8     4     3    9.7275E+00  1.2689E-01   9.6006E+00  0.000E+00  0.000E+00  0.000E+00  1.06381E+03  6.256E-01  1.000E+01  3.500E-02  1.209E+00
   1    6    8     5     1    1.0432E+01  2.2686E-01   1.0205E+01  0.000E+00  0.000E+00  0.000E+00  1.05868E+03  6.790E-01  1.542E+01  6.166E-02  1.226E+00
   1    7    7     5     2    1.0205E+01  2.7894E-01   9.9265E+00  0.000E+00  0.000E+00  0.000E+00  1.05417E+03  6.732E-01  1.519E+01  7.594E-02  1.224E+00
   1    8    7     5     3    9.9265E+00  1.9221E-01   9.7343E+00  0.000E+00  0.000E+00  0.000E+00  1.04992E+03  6.676E-01  1.497E+01  5.241E-02  1.223E+00
   1    8    6     5     4    9.7343E+00  1.3577E-01   9.5985E+00  0.000E+00  0.000E+00  0.000E+00  1.04691E+03  6.637E-01  1.482E+01  3.706E-02  1.221E+00
   1    9    6     6     1    1.8100E+01  2.4012E-01   1.7860E+01  0.000E+00  0.000E+00  0.000E+00  1.04373E+03  1.002E+00  1.200E+01  6.000E-02  1.334E+00
   1   10    7     6     2    1.7860E+01  2.3964E-01   1.7620E+01  0.000E+00  0.000E+00  0.000E+00  1.03918E+03  9.940E-01  1.200E+01  6.000E-02  1.331E+00
   1   11    7     6     3    1.7620E+01  2.3915E-01   1.7381E+01  0.000E+00  0.000E+00  0.000E+00  1.03462E+03  9.859E-01  1.200E+01  6.000E-02  1.329E+00
   1   12    7     6     4    1.7381E+01  2.3867E-01   1.7142E+01  0.000E+00  0.000E+00  0.000E+00  1.03007E+03  9.778E-01  1.200E+01  6.000E-02  1.326E+00
   1   13    7     6     5    1.7142E+01  7.5172E-03   1.7135E+01  0.000E+00  0.000E+00  0.000E+00  1.02688E+03  9.736E-01  1.200E+01  2.400E-02  1.044E-01
   1   14    9     7     1    1.5000E+02  1.3888E+00   1.4861E+02  0.000E+00  0.000E+00  0.000E+00  1.03987E+03  2.288E+00  5.529E+01  5.593E-01  8.277E-01
   1   13    8     7     2    1.4861E+02  1.9997E+00   1.4661E+02  0.000E+00  0.000E+00  0.000E+00  1.03478E+03  2.279E+00  5.525E+01  6.147E-01  1.084E+00
   1   13    7     7     3    1.4661E+02  1.7412E+00   1.4487E+02  0.000E+00  0.000E+00  0.000E+00  1.02969E+03  2.269E+00  5.521E+01  5.584E-01  1.039E+00
   1   13    6     8     1    1.6201E+02  1.1382E+00   1.6087E+02  0.000E+00  0.000E+00  0.000E+00  1.02477E+03  2.896E+00  4.199E+01  4.278E-01  8.868E-01
   1   13    5     8     2    1.6087E+02  3.7917E-01   1.6049E+02  0.000E+00  0.000E+00  0.000E+00  1.01852E+03  2.890E+00  4.191E+01  4.271E-01  2.959E-01
   1   13    4     8     3    1.6049E+02 -1.7431E+00   1.6223E+02  0.000E+00  0.000E+00  0.000E+00  1.01227E+03  2.895E+00  4.198E+01  4.278E+00 -1.358E-01
   1   13    3     8     4    1.6223E+02 -3.3017E+00   1.6553E+02  0.000E+00  0.000E+00  0.000E+00  1.00604E+03  2.912E+00  4.222E+01  4.303E+00 -2.558E-01
   1   13    2     8     5    1.6553E+02 -2.4816E+00   1.6801E+02  0.000E+00  0.000E+00  0.000E+00  9.99806E+02  2.931E+00  4.250E+01  4.331E+00 -1.910E-01
   1   13    1     8     6    1.6801E+02 -1.9458E+00   1.6996E+02  0.000E+00  0.000E+00  0.000E+00  9.94821E+02  2.946E+00  4.271E+01  2.611E+00 -2.484E-01
   1    8    6     9     1    5.7787E-01  0.0000E+00   5.7787E-01  0.000E+00  0.000E+00  0.000E+00  1.07916E+03  4.090E-01  4.000E+00  0.000E+00  1.136E+00
   1    8    5     9     2    5.7787E-01  0.0000E+00   5.7787E-01  0.000E+00  0.000E+00  0.000E+00  1.07866E+03  4.090E-01  4.000E+00  0.000E+00  1.136E+00





UNSATURATED ZONE PACKAGE VOLUMETRIC BUDGET FOR  TIME STEP    30 STRESS PERIOD   35
  ------------------------------------------------------------------------------



     CUMULATIVE VOLUMES      L**3       RATES FOR THIS TIME STEP      L**3/T
     ------------------                 ------------------------

           IN:                                      IN:
           ---                                      ---
        INFILTRATION =  1836515556.8645          INFILTRATION =           4.9854

          OUT:                                     OUT:
          ----                                     ----
              UZF ET =  1489605175.6863                UZF ET =           4.2288
        UZF RECHARGE =    28382082.6520          UZF RECHARGE =          38.3137

            IN - OUT =   318528298.5262              IN - OUT =         -37.5571

          STORAGE:                                 STORAGE:
          --------                                 --------
      STORAGE CHANGE =   318528270.9420        STORAGE CHANGE =         -37.5571

 PERCENT DISCREPANCY IS DIFFERENCE BETWEEN IN-OUT MINUS CHANGE IN STORAGE
 DIVIDED BY THE AVERAGE OF IN AND OUT TIMES 100

 PERCENT DISCREPANCY =           0.00     PERCENT DISCREPANCY =           0.00






1
  VOLUMETRIC BUDGET FOR AGRICULTURAL FIELDS AT  END OF TIME STEP   30, STRESS PERIOD  35
  ------------------------------------------------------------------------------

     CUMULATIVE VOLUMES      L**3       RATES FOR THIS TIME STEP      L**3/T
     ------------------                 ------------------------

           IN:                                      IN:
           ---                                      ---
               AG WELLS  =   871999872.0000                 AG WELLS  =       1.4240E-03
      DIVERSION SEGMENTS =   570691712.0000        DIVERSION SEGMENTS =           0.5779
           GW IRRIGATION =           0.0000             GW IRRIGATION =           0.0000
           SW IRRIGATION =           0.0000             SW IRRIGATION =           0.0000
        SYSTEM LOSSES GW =           0.0000          SYSTEM LOSSES GW =           0.0000
        SYSTEM LOSSES SW =           0.0000          SYSTEM LOSSES SW =           0.0000

                TOTAL IN =  1442691584.0000                  TOTAL IN =           0.5793

          OUT:                                     OUT:
          ----                                     ----
               AG WELLS  =           0.0000                 AG WELLS  =           0.0000
      DIVERSION SEGMENTS =           0.0000        DIVERSION SEGMENTS =           0.0000
           GW IRRIGATION =   871999872.0000             GW IRRIGATION =       1.4240E-03
           SW IRRIGATION =   570702976.0000             SW IRRIGATION =           0.5779
        SYSTEM LOSSES GW =           0.0000          SYSTEM LOSSES GW =           0.0000
        SYSTEM LOSSES SW =           0.0000          SYSTEM LOSSES SW =           0.0000

               TOTAL OUT =  1442702848.0000                 TOTAL OUT =           0.5793

                IN - OUT =      -11264.0000                  IN - OUT =      -1.1563E-05

     PERCENT DISCREPANCY =          -0.00         PERCENT DISCREPANCY =          -0.00



1
  VOLUMETRIC BUDGET FOR ENTIRE MODEL AT END OF TIME STEP   30, STRESS PERIOD  35
  ------------------------------------------------------------------------------

     CUMULATIVE VOLUMES      L**3       RATES FOR THIS TIME STEP      L**3/T
     ------------------                 ------------------------

           IN:                                      IN:
           ---                                      ---
             STORAGE     =  1270989056.0000               STORAGE     =           8.6799
       CONSTANT HEAD     =           0.0000         CONSTANT HEAD     =           0.0000
     HEAD DEP BOUNDS     =    25809490.0000       HEAD DEP BOUNDS     =           0.2894
      STREAM LEAKAGE     =  1063780864.0000        STREAM LEAKAGE     =          12.0590
        UZF RECHARGE     =    28382084.0000          UZF RECHARGE     =          38.3137
               GW ET     =           0.0000                 GW ET     =           0.0000
     SURFACE LEAKAGE     =           0.0000       SURFACE LEAKAGE     =           0.0000
           AG WELLS      =           0.0000             AG WELLS      =           0.0000

                TOTAL IN =  2388961792.0000                  TOTAL IN =          59.3419

          OUT:                                     OUT:
          ----                                     ----
             STORAGE     =   594407424.0000               STORAGE     =          49.5784
       CONSTANT HEAD     =           0.0000         CONSTANT HEAD     =           0.0000
     HEAD DEP BOUNDS     =    25765208.0000       HEAD DEP BOUNDS     =           0.2875
      STREAM LEAKAGE     =   896794624.0000        STREAM LEAKAGE     =           9.4722
        UZF RECHARGE     =           0.0000          UZF RECHARGE     =           0.0000
               GW ET     =           0.0000                 GW ET     =           0.0000
     SURFACE LEAKAGE     =           0.0000       SURFACE LEAKAGE     =           0.0000
           AG WELLS      =   871999872.0000             AG WELLS      =       1.4240E-03

               TOTAL OUT =  2388966912.0000                 TOTAL OUT =          59.3396

                IN - OUT =       -5120.0000                  IN - OUT =       2.3537E-03

     PERCENT DISCREPANCY =          -0.00         PERCENT DISCREPANCY =           0.00






         TIME SUMMARY AT END OF TIME STEP   30 IN STRESS PERIOD   35
                    SECONDS     MINUTES      HOURS       DAYS        YEARS
                    -----------------------------------------------------------
   TIME STEP LENGTH  87667.      1461.1      24.352      1.0147     2.77799E-03
 STRESS PERIOD TIME 2.63000E+06  43833.      730.56      30.440     8.33397E-02
         TOTAL TIME 8.95061E+07 1.49177E+06  24863.      1036.0      2.8363    
1
1
                            STRESS PERIOD NO.   36, LENGTH =   2630000.    
                            -----------------------------------------------

                              NUMBER OF TIME STEPS =    30

                               MULTIPLIER FOR DELT =     1.000

                            INITIAL TIME STEP SIZE =   87666.66    

 REUSING NON-PARAMETER GHB CELLS FROM LAST STRESS PERIOD

      2 GHB CELLS

 REUSING STREAM SEGMENT DATA FROM LAST STRESS PERIOD



            AREAL INFILTRATION RATE
 READING ON UNIT   19 WITH FORMAT: (10F4.0)            

            1           2           3           4           5           6           7           8           9          10
 ........................................................................................................................
   1   1.2000E-09   0.000       0.000       0.000       0.000       0.000       0.000       0.000       0.000       0.000    
   2   2.1000E-09  2.0000E-09  8.0000E-10  8.5000E-09   0.000       0.000       0.000       0.000       0.000       0.000    
   3   5.0000E-10  1.1000E-09  8.8000E-09  5.5000E-09   0.000       0.000       0.000       0.000       0.000       0.000    
   4   8.5000E-09  1.1000E-09  1.1000E-09  1.1000E-09  2.0000E-09   0.000       0.000       0.000       0.000       0.000    
   5   8.5000E-09  1.1000E-09  1.1000E-09  1.1000E-09  1.1000E-09   0.000       0.000       0.000       0.000       0.000    
   6   8.5000E-09  5.2000E-09  2.1000E-09  1.1000E-09  1.5000E-09   0.000       0.000       0.000       0.000       0.000    
   7   8.5000E-09  5.2000E-09  2.1000E-09  1.2000E-09  2.0000E-09   0.000       0.000       0.000       0.000       0.000    
   8   5.0000E-10  5.2000E-09  2.1000E-09  1.2000E-09  5.0000E-09   0.000       0.000       0.000       0.000       0.000    
   9   5.0000E-10  5.2000E-09  2.1000E-09  1.2000E-09  5.0000E-09   0.000       0.000       0.000       0.000       0.000    
  10   5.0000E-10  5.2000E-09  2.1000E-09  1.2000E-09  5.8000E-09   0.000       0.000       0.000       0.000       0.000    
  11   1.0000E-10  1.1000E-09  1.1000E-09  1.2000E-09  5.0000E-09   0.000       0.000       0.000       0.000       0.000    
  12   1.1000E-09  1.1000E-09  1.1000E-09  1.1000E-09  2.0000E-09   0.000       0.000       0.000       0.000       0.000    
  13   1.1000E-09  2.2000E-09  2.2000E-09  2.1000E-09  1.0000E-09   0.000       0.000       0.000       0.000       0.000    
  14   2.0000E-10  5.5000E-09  5.5000E-09  5.2000E-09  1.0000E-09   0.000       0.000       0.000       0.000       0.000    
  15    0.000      8.8000E-09  8.8000E-09   0.000       0.000       0.000       0.000       0.000       0.000       0.000    

                  ET RATE =  5.000000E-10

 USING ET EXTINCTION DEPTH FROM PREVIOUS STRESS PERIOD. CURRENT PERIOD IS:      36

 USING EXTINCTION WATER CONTENT FROM PREVIOUS STRESS PERIOD. CURRENT PERIOD IS:      36

 USING AIR ENTRY PRESSURE FROM PREVIOUS STRESS PERIOD. CURRENT PERIOD IS:      36

 USING ROOT PRESSURE HEAD FROM PREVIOUS STRESS PERIOD. CURRENT PERIOD IS:      36

 USING ROOT ACTIVITY FROM PREVIOUS STRESS PERIOD. CURRENT PERIOD IS:      36

 PROCESSING AG STRESS PERIOD DATA

 READING AG STRESS PERIOD DATA

 READING IRRIGATION SEGMENT

 READING IRRIGATION WELL

 READING SUPPLEMENTAL WELL

 END PROCESSING AG STRESS PERIOD DATA OPTIONS
 
 SOLVING FOR HEAD 
                                                   Max.-Head-Change                         Max.-Flux-Residual
  Residual-Control   Outer-Iter.   Inner-Iter.     Column Row Layer    Maximum-Head-Change  Column Row Layer    Maximum-Flux-Residual          L2-NORM 
          0                 1           2             5    7     1       0.1826922953E+00       5    7    1         0.1000676597E+02      0.1481539524E+02
          0                 2           2             4    8     1       0.7343605413E-01       4    8    1         0.3990065850E+01      0.5659886504E+01
          0                 3           2             4    8     1       0.2957833965E-01       4    8    1         0.1605111734E+01      0.2244262602E+01
          0                 4           2             4    8     1       0.1191327433E-01       4    8    1         0.6466096744E+00      0.8947805259E+00
          0                 5           2             4    8     1       0.4798264552E-02       4    8    1         0.2604323449E+00      0.3567763600E+00
          0                 6           2             4    8     1       0.1932559411E-02       4    8    1         0.1048933712E+00      0.1422922284E+00
          0                 7           2             4    8     1       0.7783539868E-03       4    8    1         0.4224705220E-01      0.5676273387E-01
          0                 8           2             4    8     1       0.3134852815E-03       4    8    1         0.1701532474E-01      0.2264864252E-01
          0                 9           2             4    8     1       0.1262562649E-03       4    8    1         0.6852984648E-02      0.9038933786E-02
          0                10           1             4    8     1       0.5084925235E-04       4    8    1         0.2760037902E-02      0.3608175161E-02

    ------------------------------------------------
       NWT REQUIRED           10 OUTER ITERATIONS 
       AND A TOTAL OF         19 INNER ITERATIONS.
    ------------------------------------------------

 NO OUTPUT CONTROL FOR STRESS PERIOD   36   TIME STEP    1
 
 SOLVING FOR HEAD 
                                                   Max.-Head-Change                         Max.-Flux-Residual
  Residual-Control   Outer-Iter.   Inner-Iter.     Column Row Layer    Maximum-Head-Change  Column Row Layer    Maximum-Flux-Residual          L2-NORM 
          0                 1           2             4    8     1       0.1689070704E+00       4    8    1         0.9112459969E+01      0.1376593799E+02
          0                 2           2             4    8     1       0.6802794857E-01       4    8    1         0.3698293068E+01      0.5185878888E+01
          0                 3           2             4    8     1       0.2739808948E-01       4    8    1         0.1486757329E+01      0.2052764378E+01
          0                 4           2             4    8     1       0.1103442572E-01       4    8    1         0.5989464453E+00      0.8186658264E+00
          0                 5           2             4    8     1       0.4444009517E-02       4    8    1         0.2412169406E+00      0.3264953215E+00
          0                 6           2             4    8     1       0.1789764745E-02       4    8    1         0.9714797986E-01      0.1302442218E+00
          0                 7           2             4    8     1       0.7207964888E-03       4    8    1         0.3912499980E-01      0.5196793705E-01
          0                 8           2             4    8     1       0.2902853949E-03       4    8    1         0.1575689407E-01      0.2073999143E-01
          0                 9           2             4    8     1       0.1169051376E-03       4    8    1         0.6345745677E-02      0.8278981733E-02
          0                10           1             4    8     1       0.4708016434E-04       4    8    1         0.2555586540E-02      0.3305519155E-02

    ------------------------------------------------
       NWT REQUIRED           10 OUTER ITERATIONS 
       AND A TOTAL OF         19 INNER ITERATIONS.
    ------------------------------------------------

 NO OUTPUT CONTROL FOR STRESS PERIOD   36   TIME STEP    2
 
 SOLVING FOR HEAD 
                                                   Max.-Head-Change                         Max.-Flux-Residual
  Residual-Control   Outer-Iter.   Inner-Iter.     Column Row Layer    Maximum-Head-Change  Column Row Layer    Maximum-Flux-Residual          L2-NORM 
          0                 1           2             4    8     1       0.1567966287E+00       4    8    1         0.8441515136E+01      0.1289036832E+02
          0                 2           2             4    8     1       0.6314666247E-01       4    8    1         0.3434898099E+01      0.4767574692E+01
          0                 3           2             4    8     1       0.2543064908E-01       4    8    1         0.1379982080E+01      0.1883208395E+01
          0                 4           2             4    8     1       0.1024144175E-01       4    8    1         0.5559518739E+00      0.7512500638E+00
          0                 5           2             4    8     1       0.4124398583E-02       4    8    1         0.2238853636E+00      0.2996681760E+00
          0                 6           2             4    8     1       0.1660947792E-02       4    8    1         0.9016261927E-01      0.1195677518E+00
          0                 7           2             4    8     1       0.6688784142E-03       4    8    1         0.3630958278E-01      0.4771790900E-01
          0                 8           2             4    8     1       0.2693607361E-03       4    8    1         0.1462217282E-01      0.1904776805E-01
          0                 9           1             4    8     1       0.1084719318E-03       4    8    1         0.5888415400E-02      0.7605032605E-02
          0                10           1             4    8     1       0.4368140212E-04       4    8    1         0.2371269837E-02      0.3037046292E-02

    ------------------------------------------------
       NWT REQUIRED           10 OUTER ITERATIONS 
       AND A TOTAL OF         18 INNER ITERATIONS.
    ------------------------------------------------

 NO OUTPUT CONTROL FOR STRESS PERIOD   36   TIME STEP    3
 
 SOLVING FOR HEAD 
                                                   Max.-Head-Change                         Max.-Flux-Residual
  Residual-Control   Outer-Iter.   Inner-Iter.     Column Row Layer    Maximum-Head-Change  Column Row Layer    Maximum-Flux-Residual          L2-NORM 
          0                 1           2             5    7     1       0.1356050752E+00       5    7    1         0.7362325827E+01      0.1005671249E+02
          0                 2           2             5    7     1       0.5343157306E-01       5    7    1         0.2965460093E+01      0.3022983890E+01
          0                 3           2             5    7     1       0.2105175784E-01       5    7    1         0.1162329103E+01      0.1163092692E+01
          0                 4           2             5    7     1       0.8294255900E-02       5    7    1         0.4583390426E+00      0.4583403933E+00
          0                 5           2             5    7     1       0.3267883819E-02       5    7    1         0.1805652315E+00      0.1805665563E+00
          0                 6           2             5    7     1       0.1287525711E-02       5    7    1         0.7114254260E-01      0.7114297902E-01
          0                 7           2             5    7     1       0.5072771118E-03       5    7    1         0.2802966907E-01      0.2802984413E-01
          0                 8           2             5    7     1       0.1998640330E-03       5    7    1         0.1104352130E-01      0.1104359014E-01
          0                 9           1             5    7     1       0.7874518998E-04       5    7    1         0.4351078810E-02      0.4351105934E-02

    ------------------------------------------------
       NWT REQUIRED            9 OUTER ITERATIONS 
       AND A TOTAL OF         17 INNER ITERATIONS.
    ------------------------------------------------

 NO OUTPUT CONTROL FOR STRESS PERIOD   36   TIME STEP    4
 
 SOLVING FOR HEAD 
                                                   Max.-Head-Change                         Max.-Flux-Residual
  Residual-Control   Outer-Iter.   Inner-Iter.     Column Row Layer    Maximum-Head-Change  Column Row Layer    Maximum-Flux-Residual          L2-NORM 
          0                 1           2             5    6     1       0.1382619729E+00       5    6    1         0.7485558547E+01      0.1161849714E+02
          0                 2           2             5    6     1       0.5553143896E-01       5    6    1         0.3025084677E+01      0.4120266576E+01
          0                 3           2             5    6     1       0.2230353235E-01       5    6    1         0.1213199486E+01      0.1634203541E+01
          0                 4           2             5    6     1       0.8957965910E-02       5    6    1         0.4873948862E+00      0.6564519437E+00
          0                 5           2             5    6     1       0.3597873662E-02       5    6    1         0.1957487228E+00      0.2636530894E+00
          0                 6           2             5    6     1       0.1445050622E-02       5    6    1         0.7862114008E-01      0.1058981130E+00
          0                 7           2             5    6     1       0.5803911844E-03       5    6    1         0.3157736525E-01      0.4253435552E-01
          0                 8           2             5    6     1       0.2331090387E-03       5    6    1         0.1268276572E-01      0.1708410112E-01
          0                 9           1             5    6     1       0.9362632010E-04       5    6    1         0.5093922750E-02      0.6861898562E-02

    ------------------------------------------------
       NWT REQUIRED            9 OUTER ITERATIONS 
       AND A TOTAL OF         17 INNER ITERATIONS.
    ------------------------------------------------

 NO OUTPUT CONTROL FOR STRESS PERIOD   36   TIME STEP    5
 
 SOLVING FOR HEAD 
                                                   Max.-Head-Change                         Max.-Flux-Residual
  Residual-Control   Outer-Iter.   Inner-Iter.     Column Row Layer    Maximum-Head-Change  Column Row Layer    Maximum-Flux-Residual          L2-NORM 
          0                 1           2             5    6     1       0.2149500852E+00       5    6    1         0.1184359069E+02      0.1337842665E+02
          0                 2           2             5    6     1       0.8477888571E-01       5    6    1         0.4682343029E+01      0.4719206183E+01
          0                 3           2             5    6     1       0.3346443645E-01       5    6    1         0.1845717143E+01      0.1846220964E+01
          0                 4           2             5    6     1       0.1321016370E-01       5    6    1         0.7287359669E+00      0.7287567760E+00
          0                 5           2             5    6     1       0.5214795366E-02       5    6    1         0.2876613285E+00      0.2876695785E+00
          0                 6           2             5    6     1       0.2058576649E-02       5    6    1         0.1135571741E+00      0.1135604431E+00
          0                 7           2             5    6     1       0.8126376453E-03       5    6    1         0.4482741700E-01      0.4482870978E-01
          0                 8           2             5    6     1       0.3207944583E-03       5    6    1         0.1769594894E-01      0.1769645938E-01
          0                 9           2             5    6     1       0.1266358837E-03       5    6    1         0.6985600619E-02      0.6985802460E-02
          0                10           1             5    6     1       0.4999041155E-04       5    6    1         0.2757615448E-02      0.2757695101E-02

    ------------------------------------------------
       NWT REQUIRED           10 OUTER ITERATIONS 
       AND A TOTAL OF         19 INNER ITERATIONS.
    ------------------------------------------------

 NO OUTPUT CONTROL FOR STRESS PERIOD   36   TIME STEP    6
 
 SOLVING FOR HEAD 
                                                   Max.-Head-Change                         Max.-Flux-Residual
  Residual-Control   Outer-Iter.   Inner-Iter.     Column Row Layer    Maximum-Head-Change  Column Row Layer    Maximum-Flux-Residual          L2-NORM 
          0                 1           2             5    6     1       0.1924124699E+00       5    6    1         0.1060624056E+02      0.1455563546E+02
          0                 2           2             5    6     1       0.7598048416E-01       5    6    1         0.4190965077E+01      0.5404257071E+01
          0                 3           2             5    6     1       0.3000329423E-01       5    6    1         0.1654529288E+01      0.2139327825E+01
          0                 4           2             5    6     1       0.1184787133E-01       5    6    1         0.6533229927E+00      0.8503423658E+00
          0                 5           2             5    6     1       0.4678596925E-02       5    6    1         0.2579945179E+00      0.3381474766E+00
          0                 6           2             5    6     1       0.1847543528E-02       5    6    1         0.1018789028E+00      0.1344805621E+00
          0                 7           2             5    6     1       0.7295876063E-03       5    6    1         0.4023133380E-01      0.5349052212E-01
          0                 8           2             5    6     1       0.2881137347E-03       5    6    1         0.1588721009E-01      0.2127910858E-01
          0                 9           2             5    6     1       0.1137769447E-03       5    6    1         0.6273857821E-02      0.8466235452E-02
          0                10           1             5    6     1       0.4493124352E-04       5    6    1         0.2477567350E-02      0.3368895112E-02

    ------------------------------------------------
       NWT REQUIRED           10 OUTER ITERATIONS 
       AND A TOTAL OF         19 INNER ITERATIONS.
    ------------------------------------------------

 NO OUTPUT CONTROL FOR STRESS PERIOD   36   TIME STEP    7
 
 SOLVING FOR HEAD 
                                                   Max.-Head-Change                         Max.-Flux-Residual
  Residual-Control   Outer-Iter.   Inner-Iter.     Column Row Layer    Maximum-Head-Change  Column Row Layer    Maximum-Flux-Residual          L2-NORM 
          0                 1           2             4    7     1       0.2448451235E+00       4    7    1         0.1334718126E+02      0.1711402801E+02
          0                 2           2             4    7     1       0.9829741774E-01       4    7    1         0.5347349794E+01      0.6559234487E+01
          0                 3           2             4    7     1       0.3946351916E-01       4    7    1         0.2147678682E+01      0.2612094163E+01
          0                 4           2             4    7     1       0.1583341309E-01       4    7    1         0.8620656948E+00      0.1043051941E+01
          0                 5           2             4    7     1       0.6352228825E-02       4    7    1         0.3458646405E+00      0.4164416710E+00
          0                 6           2             4    7     1       0.2548444533E-02       4    7    1         0.1387570975E+00      0.1662787921E+00
          0                 7           2             4    7     1       0.1022402055E-02       4    7    1         0.5566785172E-01      0.6639967849E-01
          0                 8           2             4    7     1       0.4101717556E-03       4    7    1         0.2233318332E-01      0.2651783268E-01
          0                 9           1             4    7     1       0.1645535754E-03       4    7    1         0.8959719166E-02      0.1059138922E-01
          0                10           1             4    7     1       0.6601558997E-04       4    7    1         0.3594476735E-02      0.4230677261E-02

    ------------------------------------------------
       NWT REQUIRED           10 OUTER ITERATIONS 
       AND A TOTAL OF         18 INNER ITERATIONS.
    ------------------------------------------------

 NO OUTPUT CONTROL FOR STRESS PERIOD   36   TIME STEP    8
 
 SOLVING FOR HEAD 
                                                   Max.-Head-Change                         Max.-Flux-Residual
  Residual-Control   Outer-Iter.   Inner-Iter.     Column Row Layer    Maximum-Head-Change  Column Row Layer    Maximum-Flux-Residual          L2-NORM 
          0                 1           2             4    7     1       0.2243824345E+00       4    7    1         0.1221542416E+02      0.1564881320E+02
          0                 2           2             4    7     1       0.9002016347E-01       4    7    1         0.4902037146E+01      0.5983541939E+01
          0                 3           2             4    7     1       0.3611501946E-01       4    7    1         0.1966395378E+01      0.2379481526E+01
          0                 4           2             4    7     1       0.1448882202E-01       4    7    1         0.7888802641E+00      0.9494684093E+00
          0                 5           2             4    7     1       0.5812666981E-02       4    7    1         0.3164918058E+00      0.3788792656E+00
          0                 6           2             4    7     1       0.2331927198E-02       4    7    1         0.1269705644E+00      0.1512065921E+00
          0                 7           2             4    7     1       0.9355171305E-03       4    7    1         0.5093808725E-01      0.6035282610E-01
          0                 8           2             4    7     1       0.3753062134E-03       4    7    1         0.2043520585E-01      0.2409231279E-01
          0                 9           1             4    7     1       0.1505625819E-03       4    7    1         0.8198090746E-02      0.9618622051E-02
          0                10           1             4    7     1       0.6040122320E-04       4    7    1         0.3288847231E-02      0.3840605142E-02

    ------------------------------------------------
       NWT REQUIRED           10 OUTER ITERATIONS 
       AND A TOTAL OF         18 INNER ITERATIONS.
    ------------------------------------------------

 NO OUTPUT CONTROL FOR STRESS PERIOD   36   TIME STEP    9
 
 SOLVING FOR HEAD 
                                                   Max.-Head-Change                         Max.-Flux-Residual
  Residual-Control   Outer-Iter.   Inner-Iter.     Column Row Layer    Maximum-Head-Change  Column Row Layer    Maximum-Flux-Residual          L2-NORM 
          0                 1           2             4    7     1       0.2059419075E+00       4    7    1         0.1119013379E+02      0.1420425263E+02
          0                 2           2             4    7     1       0.8228091102E-01       4    7    1         0.4491189221E+01      0.4523676618E+01
          0                 3           2             4    7     1       0.3292873374E-01       4    7    1         0.1796344030E+01      0.1796691697E+01
          0                 4           2             4    7     1       0.1317798568E-01       4    7    1         0.7189503485E+00      0.7189530839E+00
          0                 5           1             4    7     1       0.5273794036E-02       4    7    1         0.2877232774E+00      0.2877241194E+00
          0                 6           1             4    7     1       0.2110558720E-02       4    7    1         0.1151459957E+00      0.1151463272E+00
          0                 7           1             4    7     1       0.8446402577E-03       4    7    1         0.4608117537E-01      0.4608130714E-01
          0                 8           1             4    7     1       0.3380229133E-03       4    7    1         0.1844157183E-01      0.1844162464E-01
          0                 9           1             4    7     1       0.1352759255E-03       4    7    1         0.7380271654E-02      0.7380292800E-02
          0                10           1             4    7     1       0.5413708795E-04       4    7    1         0.2953566409E-02      0.2953574943E-02

    ------------------------------------------------
       NWT REQUIRED           10 OUTER ITERATIONS 
       AND A TOTAL OF         14 INNER ITERATIONS.
    ------------------------------------------------

 NO OUTPUT CONTROL FOR STRESS PERIOD   36   TIME STEP   10
 
 SOLVING FOR HEAD 
                                                   Max.-Head-Change                         Max.-Flux-Residual
  Residual-Control   Outer-Iter.   Inner-Iter.     Column Row Layer    Maximum-Head-Change  Column Row Layer    Maximum-Flux-Residual          L2-NORM 
          0                 1           2             4    7     1       0.1885070945E+00       4    7    1         0.1024675853E+02      0.1167891890E+02
          0                 2           2             4    7     1       0.4909797403E-01       4    7    1         0.2682705947E+01      0.2740546014E+01
          0                 3           2             4    7     1       0.1650833231E-02       4    7    1         0.8975051500E-01      0.9816956813E-01
          0                 4           1             4    7     1       0.5551239530E-04       4    7    1         0.3038463536E-02      0.3429931371E-02

    ------------------------------------------------
       NWT REQUIRED            4 OUTER ITERATIONS 
       AND A TOTAL OF          7 INNER ITERATIONS.
    ------------------------------------------------

 NO OUTPUT CONTROL FOR STRESS PERIOD   36   TIME STEP   11
 
 SOLVING FOR HEAD 
                                                   Max.-Head-Change                         Max.-Flux-Residual
  Residual-Control   Outer-Iter.   Inner-Iter.     Column Row Layer    Maximum-Head-Change  Column Row Layer    Maximum-Flux-Residual          L2-NORM 
          0                 1           2             4    6     1       0.6552574142E-01       4    6    1         0.3609223342E+01      0.5381667787E+01
          0                 2           2             4    6     1      -0.6373757266E-02       4    6    1        -0.3609142076E+00      0.5379727075E+00
          0                 3           2             4    6     1       0.4339117022E-03       4    6    1         0.2526408242E-01      0.3802042895E-01
          0                 4           1             4    6     1      -0.1726574552E-04       4    6    1        -0.1033302025E-02      0.1555040346E-02

    ------------------------------------------------
       NWT REQUIRED            4 OUTER ITERATIONS 
       AND A TOTAL OF          7 INNER ITERATIONS.
    ------------------------------------------------

 NO OUTPUT CONTROL FOR STRESS PERIOD   36   TIME STEP   12
 
 SOLVING FOR HEAD 
                                                   Max.-Head-Change                         Max.-Flux-Residual
  Residual-Control   Outer-Iter.   Inner-Iter.     Column Row Layer    Maximum-Head-Change  Column Row Layer    Maximum-Flux-Residual          L2-NORM 
          0                 1           2             4    6     1       0.6186850567E-01       4    6    1         0.3404597481E+01      0.5057148375E+01
          0                 2           2             4    6     1      -0.6019483049E-02       4    6    1        -0.3404532269E+00      0.5015680756E+00
          0                 3           2             4    6     1       0.4099053615E-03       4    6    1         0.2383179534E-01      0.3510968040E-01
          0                 4           1             4    6     1      -0.1631051236E-04       4    6    1        -0.9747215031E-03      0.1435981150E-02

    ------------------------------------------------
       NWT REQUIRED            4 OUTER ITERATIONS 
       AND A TOTAL OF          7 INNER ITERATIONS.
    ------------------------------------------------

 NO OUTPUT CONTROL FOR STRESS PERIOD   36   TIME STEP   13
 
 SOLVING FOR HEAD 
                                                   Max.-Head-Change                         Max.-Flux-Residual
  Residual-Control   Outer-Iter.   Inner-Iter.     Column Row Layer    Maximum-Head-Change  Column Row Layer    Maximum-Flux-Residual          L2-NORM 
          0                 1           2             4    6     1       0.5846639719E-01       4    6    1         0.3214499084E+01      0.4764032069E+01
          0                 2           2             4    6     1      -0.5687110591E-02       4    6    1        -0.3214446718E+00      0.4763976955E+00
          0                 3           2             4    6     1       0.3872718865E-03       4    6    1         0.2250118629E-01      0.3334772158E-01
          0                 4           1             4    6     1      -0.1540990633E-04       4    6    1        -0.9202995680E-03      0.1363906509E-02

    ------------------------------------------------
       NWT REQUIRED            4 OUTER ITERATIONS 
       AND A TOTAL OF          7 INNER ITERATIONS.
    ------------------------------------------------

 NO OUTPUT CONTROL FOR STRESS PERIOD   36   TIME STEP   14
 
 SOLVING FOR HEAD 
                                                   Max.-Head-Change                         Max.-Flux-Residual
  Residual-Control   Outer-Iter.   Inner-Iter.     Column Row Layer    Maximum-Head-Change  Column Row Layer    Maximum-Flux-Residual          L2-NORM 
          0                 1           2             4    6     1       0.5530422534E-01       4    6    1         0.3037814160E+01      0.4496003523E+01
          0                 2           2             4    6     1      -0.5379533174E-02       4    6    1        -0.3037772686E+00      0.4495958861E+00
          0                 3           2             4    6     1       0.3663268514E-03       4    6    1         0.2126445723E-01      0.3147169518E-01
          0                 4           1             4    6     1      -0.1457648439E-04       4    6    1        -0.8697173248E-03      0.1287180063E-02

    ------------------------------------------------
       NWT REQUIRED            4 OUTER ITERATIONS 
       AND A TOTAL OF          7 INNER ITERATIONS.
    ------------------------------------------------

 NO OUTPUT CONTROL FOR STRESS PERIOD   36   TIME STEP   15
 
 SOLVING FOR HEAD 
                                                   Max.-Head-Change                         Max.-Flux-Residual
  Residual-Control   Outer-Iter.   Inner-Iter.     Column Row Layer    Maximum-Head-Change  Column Row Layer    Maximum-Flux-Residual          L2-NORM 
          0                 1           2             4    6     1       0.5236227927E-01       4    6    1         0.2873513989E+01      0.4250589081E+01
          0                 2           2             4    6     1      -0.5093375043E-02       4    6    1        -0.2873481543E+00      0.4250553906E+00
          0                 3           2             4    6     1       0.3468404165E-03       4    6    1         0.2011441020E-01      0.2975377080E-01
          0                 4           1             4    6     1      -0.1380110184E-04       4    6    1        -0.8226803748E-03      0.1216926755E-02

    ------------------------------------------------
       NWT REQUIRED            4 OUTER ITERATIONS 
       AND A TOTAL OF          7 INNER ITERATIONS.
    ------------------------------------------------

 NO OUTPUT CONTROL FOR STRESS PERIOD   36   TIME STEP   16
 
 SOLVING FOR HEAD 
                                                   Max.-Head-Change                         Max.-Flux-Residual
  Residual-Control   Outer-Iter.   Inner-Iter.     Column Row Layer    Maximum-Head-Change  Column Row Layer    Maximum-Flux-Residual          L2-NORM 
          0                 1           2             4    6     1       0.1968069827E+00       4    6    1         0.1074711802E+02      0.1114925470E+02
          0                 2           2             4    6     1       0.7880549185E-01       4    6    1         0.4296151221E+01      0.4306386570E+01
          0                 3           2             4    6     1       0.3155495058E-01       4    6    1         0.1720849938E+01      0.1720970065E+01
          0                 4           2             4    6     1       0.1263510923E-01       4    6    1         0.6890011150E+00      0.6890043153E+00
          0                 5           2             4    6     1       0.5059302844E-02       4    6    1         0.2758922445E+00      0.2758929858E+00
          0                 6           2             4    6     1       0.2025827331E-02       4    6    1         0.1104714337E+00      0.1104717491E+00
          0                 7           2             4    6     1       0.8111743409E-03       4    6    1         0.4423460029E-01      0.4423472489E-01
          0                 8           2             4    6     1       0.3248074599E-03       4    6    1         0.1771225618E-01      0.1771230625E-01
          0                 9           2             4    6     1       0.1300582152E-03       4    6    1         0.7092277282E-02      0.7092297515E-02
          0                10           1             4    6     1       0.5207743539E-04       4    6    1         0.2839863817E-02      0.2839872401E-02

    ------------------------------------------------
       NWT REQUIRED           10 OUTER ITERATIONS 
       AND A TOTAL OF         19 INNER ITERATIONS.
    ------------------------------------------------

 NO OUTPUT CONTROL FOR STRESS PERIOD   36   TIME STEP   17
 
 SOLVING FOR HEAD 
                                                   Max.-Head-Change                         Max.-Flux-Residual
  Residual-Control   Outer-Iter.   Inner-Iter.     Column Row Layer    Maximum-Head-Change  Column Row Layer    Maximum-Flux-Residual          L2-NORM 
          0                 1           2             4    6     1       0.2171625236E+00       4    6    1         0.1184325187E+02      0.1216498047E+02
          0                 2           2             4    6     1       0.8683303036E-01       4    6    1         0.4738044356E+01      0.4746168244E+01
          0                 3           2             4    6     1       0.3474419856E-01       4    6    1         0.1895781426E+01      0.1895881785E+01
          0                 4           2             4    6     1       0.1390209660E-01       4    6    1         0.7585438328E+00      0.7585463262E+00
          0                 5           2             4    6     1       0.5562609359E-02       4    6    1         0.3035163657E+00      0.3035170994E+00
          0                 6           2             4    6     1       0.2225752791E-02       4    6    1         0.1214451496E+00      0.1214454517E+00
          0                 7           2             4    6     1       0.8905849105E-03       4    6    1         0.4859356698E-01      0.4859368688E-01
          0                 8           2             4    6     1       0.3563475319E-03       4    6    1         0.1944362474E-01      0.1944367277E-01
          0                 9           2             4    6     1       0.1425844565E-03       4    6    1         0.7779929873E-02      0.7779949075E-02
          0                10           1             4    6     1       0.5705196621E-04       4    6    1         0.3112964192E-02      0.3112971873E-02

    ------------------------------------------------
       NWT REQUIRED           10 OUTER ITERATIONS 
       AND A TOTAL OF         19 INNER ITERATIONS.
    ------------------------------------------------

 NO OUTPUT CONTROL FOR STRESS PERIOD   36   TIME STEP   18
 
 SOLVING FOR HEAD 
                                                   Max.-Head-Change                         Max.-Flux-Residual
  Residual-Control   Outer-Iter.   Inner-Iter.     Column Row Layer    Maximum-Head-Change  Column Row Layer    Maximum-Flux-Residual          L2-NORM 
          0                 1           2             4    6     1       0.1983498949E+00       4    6    1         0.1080838129E+02      0.1114332444E+02
          0                 2           2             4    6     1       0.7936179662E-01       4    6    1         0.4332035828E+01      0.4340512662E+01
          0                 3           2             4    6     1       0.3175355198E-01       4    6    1         0.1732535023E+01      0.1732647051E+01
          0                 4           2             4    6     1       0.1270497240E-01       4    6    1         0.6932544783E+00      0.6932564653E+00
          0                 5           2             4    6     1       0.2805026882E-02       4    6    1         0.1530507488E+00      0.1530520016E+00
          0                 6           1             4    6     1       0.9423967604E-04       4    6    1         0.5139850689E-02      0.5141336746E-02

    ------------------------------------------------
       NWT REQUIRED            6 OUTER ITERATIONS 
       AND A TOTAL OF         11 INNER ITERATIONS.
    ------------------------------------------------

 NO OUTPUT CONTROL FOR STRESS PERIOD   36   TIME STEP   19
 
 SOLVING FOR HEAD 
                                                   Max.-Head-Change                         Max.-Flux-Residual
  Residual-Control   Outer-Iter.   Inner-Iter.     Column Row Layer    Maximum-Head-Change  Column Row Layer    Maximum-Flux-Residual          L2-NORM 
          0                 1           2             4    5     1       0.2674689581E-01       4    5    1         0.1447152512E+01      0.2750888710E+01
          0                 2           2             4    5     1      -0.2601782008E-02       4    5    1        -0.1447173148E+00      0.2696291611E+00
          0                 3           2             4    5     1       0.1771593370E-03       4    5    1         0.1013019689E-01      0.1884644725E-01
          0                 4           1             4    5     1      -0.7050043881E-05       4    5    1        -0.4143257297E-03      0.7741084177E-03

    ------------------------------------------------
       NWT REQUIRED            4 OUTER ITERATIONS 
       AND A TOTAL OF          7 INNER ITERATIONS.
    ------------------------------------------------

 NO OUTPUT CONTROL FOR STRESS PERIOD   36   TIME STEP   20
 
 SOLVING FOR HEAD 
                                                   Max.-Head-Change                         Max.-Flux-Residual
  Residual-Control   Outer-Iter.   Inner-Iter.     Column Row Layer    Maximum-Head-Change  Column Row Layer    Maximum-Flux-Residual          L2-NORM 
          0                 1           2             4    5     1       0.2569834126E-01       4    5    1         0.1389725872E+01      0.2654891536E+01
          0                 2           2             4    5     1      -0.2499503597E-02       4    5    1        -0.1389744832E+00      0.2598739318E+00
          0                 3           2             4    5     1       0.1702155474E-03       4    5    1         0.9728199991E-02      0.1815152447E-01
          0                 4           1             4    5     1      -0.6772748233E-05       4    5    1        -0.3978840159E-03      0.7422869723E-03

    ------------------------------------------------
       NWT REQUIRED            4 OUTER ITERATIONS 
       AND A TOTAL OF          7 INNER ITERATIONS.
    ------------------------------------------------

 NO OUTPUT CONTROL FOR STRESS PERIOD   36   TIME STEP   21
 
 SOLVING FOR HEAD 
                                                   Max.-Head-Change                         Max.-Flux-Residual
  Residual-Control   Outer-Iter.   Inner-Iter.     Column Row Layer    Maximum-Head-Change  Column Row Layer    Maximum-Flux-Residual          L2-NORM 
          0                 1           2             4    5     1       0.2470401143E-01       4    5    1         0.1335265397E+01      0.2565050379E+01
          0                 2           2             4    5     1      -0.2402794460E-02       4    5    1        -0.1335282819E+00      0.2513282205E+00
          0                 3           2             4    5     1       0.1636295686E-03       4    5    1         0.9346967199E-02      0.1755542788E-01
          0                 4           1             4    5     1      -0.6510701467E-05       4    5    1        -0.3822915601E-03      0.7179145092E-03

    ------------------------------------------------
       NWT REQUIRED            4 OUTER ITERATIONS 
       AND A TOTAL OF          7 INNER ITERATIONS.
    ------------------------------------------------

 NO OUTPUT CONTROL FOR STRESS PERIOD   36   TIME STEP   22
 
 SOLVING FOR HEAD 
                                                   Max.-Head-Change                         Max.-Flux-Residual
  Residual-Control   Outer-Iter.   Inner-Iter.     Column Row Layer    Maximum-Head-Change  Column Row Layer    Maximum-Flux-Residual          L2-NORM 
          0                 1           2             4    5     1       0.2376046612E-01       4    5    1         0.1283599480E+01      0.2481682488E+01
          0                 2           2             4    5     1      -0.2311024118E-02       4    5    1        -0.1283615501E+00      0.2433795435E+00
          0                 3           2             4    5     1       0.1573799460E-03       4    5    1         0.8985297158E-02      0.1700089725E-01
          0                 4           1             4    5     1      -0.6262037593E-05       4    5    1        -0.3674992377E-03      0.6952477415E-03

    ------------------------------------------------
       NWT REQUIRED            4 OUTER ITERATIONS 
       AND A TOTAL OF          7 INNER ITERATIONS.
    ------------------------------------------------

 NO OUTPUT CONTROL FOR STRESS PERIOD   36   TIME STEP   23
 
 SOLVING FOR HEAD 
                                                   Max.-Head-Change                         Max.-Flux-Residual
  Residual-Control   Outer-Iter.   Inner-Iter.     Column Row Layer    Maximum-Head-Change  Column Row Layer    Maximum-Flux-Residual          L2-NORM 
          0                 1           2             4    5     1       0.2286492086E-01       4    5    1         0.1234574090E+01      0.2404269596E+01
          0                 2           2             4    5     1      -0.2223921820E-02       4    5    1        -0.1234588835E+00      0.2359816888E+00
          0                 3           2             4    5     1       0.1514482380E-03       4    5    1         0.8642111555E-02      0.1648470957E-01
          0                 4           1             4    5     1      -0.6026021983E-05       4    5    1        -0.3534629172E-03      0.6741618105E-03

    ------------------------------------------------
       NWT REQUIRED            4 OUTER ITERATIONS 
       AND A TOTAL OF          7 INNER ITERATIONS.
    ------------------------------------------------

 NO OUTPUT CONTROL FOR STRESS PERIOD   36   TIME STEP   24
 
 SOLVING FOR HEAD 
                                                   Max.-Head-Change                         Max.-Flux-Residual
  Residual-Control   Outer-Iter.   Inner-Iter.     Column Row Layer    Maximum-Head-Change  Column Row Layer    Maximum-Flux-Residual          L2-NORM 
          0                 1           2             4    5     1       0.2201462285E-01       4    5    1         0.1188037513E+01      0.2332361186E+01
          0                 2           2             4    5     1      -0.2141219884E-02       4    5    1        -0.1188051094E+00      0.2290945249E+00
          0                 3           2             4    5     1       0.1458162142E-03       4    5    1         0.8316587571E-02      0.1600434299E-01
          0                 4           1             4    5     1      -0.5801930484E-05       4    5    1        -0.3401600202E-03      0.6545389493E-03

    ------------------------------------------------
       NWT REQUIRED            4 OUTER ITERATIONS 
       AND A TOTAL OF          7 INNER ITERATIONS.
    ------------------------------------------------

 NO OUTPUT CONTROL FOR STRESS PERIOD   36   TIME STEP   25
 
 SOLVING FOR HEAD 
                                                   Max.-Head-Change                         Max.-Flux-Residual
  Residual-Control   Outer-Iter.   Inner-Iter.     Column Row Layer    Maximum-Head-Change  Column Row Layer    Maximum-Flux-Residual          L2-NORM 
          0                 1           2             4    5     1       0.2120726175E-01       4    5    1         0.1143861695E+01      0.2265527440E+01
          0                 2           2             4    5     1      -0.2062693655E-02       4    5    1        -0.1143874213E+00      0.2226793290E+00
          0                 3           2             4    5     1       0.1404685723E-03       4    5    1         0.8007111048E-02      0.1555624590E-01
          0                 4           1             4    5     1      -0.5589153034E-05       4    5    1        -0.3274913565E-03      0.6361876797E-03

    ------------------------------------------------
       NWT REQUIRED            4 OUTER ITERATIONS 
       AND A TOTAL OF          7 INNER ITERATIONS.
    ------------------------------------------------

 NO OUTPUT CONTROL FOR STRESS PERIOD   36   TIME STEP   26
 
 SOLVING FOR HEAD 
                                                   Max.-Head-Change                         Max.-Flux-Residual
  Residual-Control   Outer-Iter.   Inner-Iter.     Column Row Layer    Maximum-Head-Change  Column Row Layer    Maximum-Flux-Residual          L2-NORM 
          0                 1           2             4    5     1       0.2044039464E-01       4    5    1         0.1101912160E+01      0.2203365027E+01
          0                 2           2             4    5     1      -0.1988105586E-02       4    5    1        -0.1101923707E+00      0.2166998463E+00
          0                 3           2             4    5     1       0.1353891337E-03       4    5    1         0.7713458295E-02      0.1513879183E-01
          0                 4           1             4    5     1      -0.5387047223E-05       4    5    1        -0.3154809365E-03      0.6191172053E-03

    ------------------------------------------------
       NWT REQUIRED            4 OUTER ITERATIONS 
       AND A TOTAL OF          7 INNER ITERATIONS.
    ------------------------------------------------

 NO OUTPUT CONTROL FOR STRESS PERIOD   36   TIME STEP   27
 
 SOLVING FOR HEAD 
                                                   Max.-Head-Change                         Max.-Flux-Residual
  Residual-Control   Outer-Iter.   Inner-Iter.     Column Row Layer    Maximum-Head-Change  Column Row Layer    Maximum-Flux-Residual          L2-NORM 
          0                 1           2             4    5     1       0.1971186446E-01       4    5    1         0.1062069585E+01      0.2145513124E+01
          0                 2           2             4    5     1      -0.1917245924E-02       4    5    1        -0.1062080244E+00      0.2111234570E+00
          0                 3           2             4    5     1       0.1305636128E-03       4    5    1         0.7434554791E-02      0.1474945438E-01
          0                 4           1             4    5     1      -0.5195043743E-05       4    5    1        -0.3040737574E-03      0.6031936185E-03

    ------------------------------------------------
       NWT REQUIRED            4 OUTER ITERATIONS 
       AND A TOTAL OF          7 INNER ITERATIONS.
    ------------------------------------------------

 NO OUTPUT CONTROL FOR STRESS PERIOD   36   TIME STEP   28
 
 SOLVING FOR HEAD 
                                                   Max.-Head-Change                         Max.-Flux-Residual
  Residual-Control   Outer-Iter.   Inner-Iter.     Column Row Layer    Maximum-Head-Change  Column Row Layer    Maximum-Flux-Residual          L2-NORM 
          0                 1           2             4    5     1       0.1901936902E-01       4    5    1         0.1024207442E+01      0.2091627850E+01
          0                 2           2             4    5     1      -0.1849890787E-02       4    5    1        -0.1024217289E+00      0.2059186654E+00
          0                 3           2             4    5     1       0.1259767612E-03       4    5    1         0.7169514753E-02      0.1438598720E-01
          0                 4           1             4    5     1      -0.5012536448E-05       4    5    1        -0.2932336070E-03      0.5883613850E-03

    ------------------------------------------------
       NWT REQUIRED            4 OUTER ITERATIONS 
       AND A TOTAL OF          7 INNER ITERATIONS.
    ------------------------------------------------

 NO OUTPUT CONTROL FOR STRESS PERIOD   36   TIME STEP   29
 
 SOLVING FOR HEAD 
                                                   Max.-Head-Change                         Max.-Flux-Residual
  Residual-Control   Outer-Iter.   Inner-Iter.     Column Row Layer    Maximum-Head-Change  Column Row Layer    Maximum-Flux-Residual          L2-NORM 
          0                 1           2             4    5     1       0.1836115091E-01       4    5    1         0.9882283857E+00      0.2041401567E+01
          0                 2           2             4    5     1      -0.1785854015E-02       4    5    1        -0.9882374884E-01      0.2010548794E+00
          0                 3           2             4    5     1       0.1216010398E-03       4    5    1         0.6917656754E-02      0.1404368736E-01
          0                 4           1             4    5     1      -0.4838429553E-05       4    5    1        -0.2829325949E-03      0.5743598415E-03

    ------------------------------------------------
       NWT REQUIRED            4 OUTER ITERATIONS 
       AND A TOTAL OF          7 INNER ITERATIONS.
    ------------------------------------------------

 NO OUTPUT CONTROL FOR STRESS PERIOD   36   TIME STEP   30



 STREAM LISTING     PERIOD     36   STEP       30

 LAYER ROW COL. STREAM  RCH.  FLOW INTO     FLOW TO   FLOW OUT OF   OVRLND.     DIRECT     STREAM       STREAM     STREAM     STREAM   STREAMBED  STREAMBED
                SEG.NO.  NO.  STRM. RCH.    AQUIFER    STRM. RCH.    RUNOFF     PRECIP       ET          HEAD       DEPTH      WIDTH   CONDCTNC.   GRADIENT

   1    1    1     1     1    9.7497E+00  1.4616E-01   9.6035E+00  0.000E+00  0.000E+00  0.000E+00  1.09394E+03  8.903E-01  8.349E+00  3.757E-02  1.297E+00
   1    2    2     1     2    9.6035E+00  2.2466E-01   9.3789E+00  0.000E+00  0.000E+00  0.000E+00  1.08894E+03  8.846E-01  8.262E+00  5.783E-02  1.295E+00
   1    3    3     1     3    9.3789E+00  1.8995E-01   9.1889E+00  0.000E+00  0.000E+00  0.000E+00  1.08330E+03  8.782E-01  8.163E+00  4.898E-02  1.293E+00
   1    3    4     1     4    9.1889E+00  1.7356E-01   9.0154E+00  0.000E+00  0.000E+00  0.000E+00  1.07828E+03  8.725E-01  8.076E+00  4.482E-02  1.291E+00
   1    4    5     2     1    7.0154E+00  2.7742E-01   6.7380E+00  0.000E+00  0.000E+00  0.000E+00  1.07249E+03  5.566E-01  1.200E+01  7.800E-02  1.186E+00
   1    5    6     2     2    6.7380E+00  2.1268E-01   6.5253E+00  0.000E+00  0.000E+00  0.000E+00  1.06705E+03  5.446E-01  1.200E+01  6.000E-02  1.182E+00
   1    6    6     2     3    6.5253E+00  2.1205E-01   6.3132E+00  0.000E+00  0.000E+00  0.000E+00  1.06233E+03  5.341E-01  1.200E+01  6.000E-02  1.178E+00
   1    7    6     2     4    6.3132E+00  2.1141E-01   6.1018E+00  0.000E+00  0.000E+00  0.000E+00  1.05760E+03  5.235E-01  1.200E+01  6.000E-02  1.174E+00
   1    8    6     2     5    6.1018E+00  2.1076E-01   5.8911E+00  0.000E+00  0.000E+00  0.000E+00  1.05287E+03  5.127E-01  1.200E+01  6.000E-02  1.171E+00
   1    3    5     3     1    2.0000E+00  2.8252E-01   1.7175E+00  0.000E+00  0.000E+00  0.000E+00  1.07555E+03  1.909E+00  9.636E+00  7.227E-02  1.955E+00
   1    3    6     3     2    1.7175E+00  2.4905E-01   1.4684E+00  0.000E+00  0.000E+00  0.000E+00  1.07264E+03  1.727E+00  8.909E+00  6.682E-02  1.864E+00
   1    3    7     3     3    1.4684E+00  1.9718E-01   1.2712E+00  0.000E+00  0.000E+00  0.000E+00  1.06987E+03  1.555E+00  8.218E+00  5.547E-02  1.777E+00
   1    4    8     3     4    1.2712E+00  2.2567E-01   1.0456E+00  0.000E+00  0.000E+00  0.000E+00  1.06682E+03  1.364E+00  7.455E+00  6.709E-02  1.682E+00
   1    5    8     3     5    1.0456E+00  1.5790E-01   8.8768E-01  0.000E+00  0.000E+00  0.000E+00  1.06362E+03  1.164E+00  6.655E+00  4.991E-02  1.582E+00
   1    6    8     3     6    8.8768E-01  5.5980E-02   8.3170E-01  0.000E+00  0.000E+00  0.000E+00  1.06158E+03  1.036E+00  6.145E+00  1.844E-02  1.518E+00
   1    5   10     4     1    1.0000E+01  9.0919E-02   9.9091E+00  0.000E+00  0.000E+00  0.000E+00  1.07836E+03  6.368E-01  1.000E+01  2.500E-02  1.212E+00
   1    5    9     4     2    9.9091E+00  1.8158E-01   9.7275E+00  0.000E+00  0.000E+00  0.000E+00  1.07154E+03  6.315E-01  1.000E+01  5.000E-02  1.211E+00
   1    6    8     4     3    9.7275E+00  1.2689E-01   9.6006E+00  0.000E+00  0.000E+00  0.000E+00  1.06381E+03  6.256E-01  1.000E+01  3.500E-02  1.209E+00
   1    6    8     5     1    1.0432E+01  2.2686E-01   1.0205E+01  0.000E+00  0.000E+00  0.000E+00  1.05868E+03  6.790E-01  1.542E+01  6.166E-02  1.226E+00
   1    7    7     5     2    1.0205E+01  2.7894E-01   9.9265E+00  0.000E+00  0.000E+00  0.000E+00  1.05417E+03  6.732E-01  1.519E+01  7.594E-02  1.224E+00
   1    8    7     5     3    9.9265E+00  1.9221E-01   9.7343E+00  0.000E+00  0.000E+00  0.000E+00  1.04992E+03  6.676E-01  1.497E+01  5.241E-02  1.223E+00
   1    8    6     5     4    9.7343E+00  1.3577E-01   9.5985E+00  0.000E+00  0.000E+00  0.000E+00  1.04691E+03  6.637E-01  1.482E+01  3.706E-02  1.221E+00
   1    9    6     6     1    1.5490E+01  2.3472E-01   1.5255E+01  0.000E+00  0.000E+00  0.000E+00  1.04364E+03  9.120E-01  1.200E+01  6.000E-02  1.304E+00
   1   10    7     6     2    1.5255E+01  2.3422E-01   1.5021E+01  0.000E+00  0.000E+00  0.000E+00  1.03909E+03  9.037E-01  1.200E+01  6.000E-02  1.301E+00
   1   11    7     6     3    1.5021E+01  2.3372E-01   1.4787E+01  0.000E+00  0.000E+00  0.000E+00  1.03453E+03  8.953E-01  1.200E+01  6.000E-02  1.298E+00
   1   12    7     6     4    1.4787E+01  2.3321E-01   1.4554E+01  0.000E+00  0.000E+00  0.000E+00  1.02998E+03  8.868E-01  1.200E+01  6.000E-02  1.296E+00
   1   13    7     6     5    1.4554E+01  5.5735E-03   1.4548E+01  0.000E+00  0.000E+00  0.000E+00  1.02679E+03  8.825E-01  1.200E+01  2.400E-02  7.741E-02
   1   14    9     7     1    1.5000E+02  1.3901E+00   1.4861E+02  0.000E+00  0.000E+00  0.000E+00  1.03987E+03  2.288E+00  5.529E+01  5.593E-01  8.285E-01
   1   13    8     7     2    1.4861E+02  2.0028E+00   1.4661E+02  0.000E+00  0.000E+00  0.000E+00  1.03478E+03  2.279E+00  5.525E+01  6.147E-01  1.086E+00
   1   13    7     7     3    1.4661E+02  1.7468E+00   1.4486E+02  0.000E+00  0.000E+00  0.000E+00  1.02969E+03  2.269E+00  5.521E+01  5.584E-01  1.043E+00
   1   13    6     8     1    1.5941E+02  1.1313E+00   1.5828E+02  0.000E+00  0.000E+00  0.000E+00  1.02475E+03  2.878E+00  4.173E+01  4.253E-01  8.867E-01
   1   13    5     8     2    1.5828E+02  3.7735E-01   1.5790E+02  0.000E+00  0.000E+00  0.000E+00  1.01850E+03  2.873E+00  4.166E+01  4.245E-01  2.963E-01
   1   13    4     8     3    1.5790E+02 -1.7393E+00   1.5964E+02  0.000E+00  0.000E+00  0.000E+00  1.01225E+03  2.878E+00  4.172E+01  4.252E+00 -1.364E-01
   1   13    3     8     4    1.5964E+02 -3.3063E+00   1.6295E+02  0.000E+00  0.000E+00  0.000E+00  1.00602E+03  2.895E+00  4.197E+01  4.277E+00 -2.577E-01
   1   13    2     8     5    1.6295E+02 -2.4965E+00   1.6544E+02  0.000E+00  0.000E+00  0.000E+00  9.99789E+02  2.914E+00  4.225E+01  4.306E+00 -1.933E-01
   1   13    1     8     6    1.6544E+02 -1.9631E+00   1.6740E+02  0.000E+00  0.000E+00  0.000E+00  9.94804E+02  2.929E+00  4.247E+01  2.597E+00 -2.520E-01
   1    8    6     9     1    0.0000E+00  0.0000E+00   0.0000E+00  0.000E+00  0.000E+00  0.000E+00  1.07875E+03  0.000E+00  4.000E+00  0.000E+00  1.000E+00
   1    8    5     9     2    0.0000E+00  0.0000E+00   0.0000E+00  0.000E+00  0.000E+00  0.000E+00  1.07825E+03  0.000E+00  4.000E+00  0.000E+00  1.000E+00





UNSATURATED ZONE PACKAGE VOLUMETRIC BUDGET FOR  TIME STEP    30 STRESS PERIOD   36
  ------------------------------------------------------------------------------



     CUMULATIVE VOLUMES      L**3       RATES FOR THIS TIME STEP      L**3/T
     ------------------                 ------------------------

           IN:                                      IN:
           ---                                      ---
        INFILTRATION =  1848107281.4226          INFILTRATION =           4.4075

          OUT:                                     OUT:
          ----                                     ----
              UZF ET =  1491511929.1344                UZF ET =           0.7250
        UZF RECHARGE =    62120421.5624          UZF RECHARGE =           0.0542

            IN - OUT =   294474930.7258              IN - OUT =           3.6283

          STORAGE:                                 STORAGE:
          --------                                 --------
      STORAGE CHANGE =   294474900.3828        STORAGE CHANGE =           3.6283

 PERCENT DISCREPANCY IS DIFFERENCE BETWEEN IN-OUT MINUS CHANGE IN STORAGE
 DIVIDED BY THE AVERAGE OF IN AND OUT TIMES 100

 PERCENT DISCREPANCY =           0.00     PERCENT DISCREPANCY =           0.00






1
  VOLUMETRIC BUDGET FOR AGRICULTURAL FIELDS AT  END OF TIME STEP   30, STRESS PERIOD  36
  ------------------------------------------------------------------------------

     CUMULATIVE VOLUMES      L**3       RATES FOR THIS TIME STEP      L**3/T
     ------------------                 ------------------------

           IN:                                      IN:
           ---                                      ---
               AG WELLS  =   871999872.0000                 AG WELLS  =           0.0000
      DIVERSION SEGMENTS =   570691712.0000        DIVERSION SEGMENTS =           0.0000
           GW IRRIGATION =           0.0000             GW IRRIGATION =           0.0000
           SW IRRIGATION =           0.0000             SW IRRIGATION =           0.0000
        SYSTEM LOSSES GW =           0.0000          SYSTEM LOSSES GW =           0.0000
        SYSTEM LOSSES SW =           0.0000          SYSTEM LOSSES SW =           0.0000

                TOTAL IN =  1442691584.0000                  TOTAL IN =           0.0000

          OUT:                                     OUT:
          ----                                     ----
               AG WELLS  =           0.0000                 AG WELLS  =           0.0000
      DIVERSION SEGMENTS =           0.0000        DIVERSION SEGMENTS =           0.0000
           GW IRRIGATION =   871999872.0000             GW IRRIGATION =           0.0000
           SW IRRIGATION =   570702976.0000             SW IRRIGATION =           0.0000
        SYSTEM LOSSES GW =           0.0000          SYSTEM LOSSES GW =           0.0000
        SYSTEM LOSSES SW =           0.0000          SYSTEM LOSSES SW =           0.0000

               TOTAL OUT =  1442702848.0000                 TOTAL OUT =           0.0000

                IN - OUT =      -11264.0000                  IN - OUT =           0.0000

     PERCENT DISCREPANCY =          -0.00         PERCENT DISCREPANCY =           0.00



1
  VOLUMETRIC BUDGET FOR ENTIRE MODEL AT END OF TIME STEP   30, STRESS PERIOD  36
  ------------------------------------------------------------------------------

     CUMULATIVE VOLUMES      L**3       RATES FOR THIS TIME STEP      L**3/T
     ------------------                 ------------------------

           IN:                                      IN:
           ---                                      ---
             STORAGE     =  1290604928.0000               STORAGE     =           4.9652
       CONSTANT HEAD     =           0.0000         CONSTANT HEAD     =           0.0000
     HEAD DEP BOUNDS     =    26570648.0000       HEAD DEP BOUNDS     =           0.2895
      STREAM LEAKAGE     =  1094935680.0000        STREAM LEAKAGE     =          11.8499
        UZF RECHARGE     =    62120428.0000          UZF RECHARGE     =       5.4203E-02
               GW ET     =           0.0000                 GW ET     =           0.0000
     SURFACE LEAKAGE     =           0.0000       SURFACE LEAKAGE     =           0.0000
           AG WELLS      =           0.0000             AG WELLS      =           0.0000

                TOTAL IN =  2474231808.0000                  TOTAL IN =          17.1588

          OUT:                                     OUT:
          ----                                     ----
             STORAGE     =   653775232.0000               STORAGE     =           7.3663
       CONSTANT HEAD     =           0.0000         CONSTANT HEAD     =           0.0000
     HEAD DEP BOUNDS     =    26521000.0000       HEAD DEP BOUNDS     =           0.2873
      STREAM LEAKAGE     =   921939712.0000        STREAM LEAKAGE     =           9.5052
        UZF RECHARGE     =           0.0000          UZF RECHARGE     =           0.0000
               GW ET     =           0.0000                 GW ET     =           0.0000
     SURFACE LEAKAGE     =           0.0000       SURFACE LEAKAGE     =           0.0000
           AG WELLS      =   871999872.0000             AG WELLS      =           0.0000

               TOTAL OUT =  2474235904.0000                 TOTAL OUT =          17.1588

                IN - OUT =       -4096.0000                  IN - OUT =       1.1444E-05

     PERCENT DISCREPANCY =          -0.00         PERCENT DISCREPANCY =           0.00






         TIME SUMMARY AT END OF TIME STEP   30 IN STRESS PERIOD   36
                    SECONDS     MINUTES      HOURS       DAYS        YEARS
                    -----------------------------------------------------------
   TIME STEP LENGTH  87667.      1461.1      24.352      1.0147     2.77799E-03
 STRESS PERIOD TIME 2.63000E+06  43833.      730.56      30.440     8.33397E-02
         TOTAL TIME 9.21360E+07 1.53560E+06  25593.      1066.4      2.9196    
1
1
                            STRESS PERIOD NO.   37, LENGTH =   2630000.    
                            -----------------------------------------------

                              NUMBER OF TIME STEPS =    30

                               MULTIPLIER FOR DELT =     1.000

                            INITIAL TIME STEP SIZE =   87666.66    

 REUSING NON-PARAMETER GHB CELLS FROM LAST STRESS PERIOD

      2 GHB CELLS

 REUSING STREAM SEGMENT DATA FROM LAST STRESS PERIOD



            AREAL INFILTRATION RATE
 READING ON UNIT   19 WITH FORMAT: (10F4.0)            

            1           2           3           4           5           6           7           8           9          10
 ........................................................................................................................
   1   1.2000E-09   0.000       0.000       0.000       0.000       0.000       0.000       0.000       0.000       0.000    
   2   2.1000E-09  2.0000E-09  8.0000E-10  8.5000E-09   0.000       0.000       0.000       0.000       0.000       0.000    
   3   5.0000E-10  1.1000E-09  8.8000E-09  5.5000E-09   0.000       0.000       0.000       0.000       0.000       0.000    
   4   8.5000E-09  1.1000E-09  1.1000E-09  1.1000E-09  2.0000E-09   0.000       0.000       0.000       0.000       0.000    
   5   8.5000E-09  1.1000E-09  1.1000E-09  1.1000E-09  1.1000E-09   0.000       0.000       0.000       0.000       0.000    
   6   8.5000E-09  5.2000E-09  2.1000E-09  1.1000E-09  1.5000E-09   0.000       0.000       0.000       0.000       0.000    
   7   8.5000E-09  5.2000E-09  2.1000E-09  1.2000E-09  2.0000E-09   0.000       0.000       0.000       0.000       0.000    
   8   5.0000E-10  5.2000E-09  2.1000E-09  1.2000E-09  5.0000E-09   0.000       0.000       0.000       0.000       0.000    
   9   5.0000E-10  5.2000E-09  2.1000E-09  1.2000E-09  5.0000E-09   0.000       0.000       0.000       0.000       0.000    
  10   5.0000E-10  5.2000E-09  2.1000E-09  1.2000E-09  5.8000E-09   0.000       0.000       0.000       0.000       0.000    
  11   1.0000E-10  1.1000E-09  1.1000E-09  1.2000E-09  5.0000E-09   0.000       0.000       0.000       0.000       0.000    
  12   1.1000E-09  1.1000E-09  1.1000E-09  1.1000E-09  2.0000E-09   0.000       0.000       0.000       0.000       0.000    
  13   1.1000E-09  2.2000E-09  2.2000E-09  2.1000E-09  1.0000E-09   0.000       0.000       0.000       0.000       0.000    
  14   2.0000E-10  5.5000E-09  5.5000E-09  5.2000E-09  1.0000E-09   0.000       0.000       0.000       0.000       0.000    
  15    0.000      8.8000E-09  8.8000E-09   0.000       0.000       0.000       0.000       0.000       0.000       0.000    

                  ET RATE =  5.000000E-10

 USING ET EXTINCTION DEPTH FROM PREVIOUS STRESS PERIOD. CURRENT PERIOD IS:      37

 USING EXTINCTION WATER CONTENT FROM PREVIOUS STRESS PERIOD. CURRENT PERIOD IS:      37

 USING AIR ENTRY PRESSURE FROM PREVIOUS STRESS PERIOD. CURRENT PERIOD IS:      37

 USING ROOT PRESSURE HEAD FROM PREVIOUS STRESS PERIOD. CURRENT PERIOD IS:      37

 USING ROOT ACTIVITY FROM PREVIOUS STRESS PERIOD. CURRENT PERIOD IS:      37

 PROCESSING AG STRESS PERIOD DATA

 READING AG STRESS PERIOD DATA

 READING IRRIGATION SEGMENT

 READING IRRIGATION WELL

 READING SUPPLEMENTAL WELL

 END PROCESSING AG STRESS PERIOD DATA OPTIONS
 
 SOLVING FOR HEAD 
                                                   Max.-Head-Change                         Max.-Flux-Residual
  Residual-Control   Outer-Iter.   Inner-Iter.     Column Row Layer    Maximum-Head-Change  Column Row Layer    Maximum-Flux-Residual          L2-NORM 
          0                 1           2             4    5     1       0.1773540337E-01       4    5    1         0.9540339517E+00      0.1994974689E+01
          0                 2           2             4    5     1      -0.1720895753E-02       4    5    1        -0.9540423727E-01      0.1963569853E+00
          0                 3           2             4    5     1       0.1173331499E-03       4    5    1         0.6680106346E-02      0.1371336157E-01
          0                 4           1             4    5     1      -0.4663235509E-05       4    5    1        -0.2730765032E-03      0.5608745889E-03

    ------------------------------------------------
       NWT REQUIRED            4 OUTER ITERATIONS 
       AND A TOTAL OF          7 INNER ITERATIONS.
    ------------------------------------------------

 NO OUTPUT CONTROL FOR STRESS PERIOD   37   TIME STEP    1
 
 SOLVING FOR HEAD 
                                                   Max.-Head-Change                         Max.-Flux-Residual
  Residual-Control   Outer-Iter.   Inner-Iter.     Column Row Layer    Maximum-Head-Change  Column Row Layer    Maximum-Flux-Residual          L2-NORM 
          0                 1           2             4    5     1       0.1714422814E-01       4    5    1         0.9217428842E+00      0.1953014974E+01
          0                 2           2             4    5     1      -0.1662694700E-02       4    5    1        -0.9217506855E-01      0.1922192509E+00
          0                 3           2             4    5     1       0.1134086359E-03       4    5    1         0.6454566730E-02      0.1342154082E-01
          0                 4           1             4    5     1      -0.4505826376E-05       4    5    1        -0.2638191854E-03      0.5489240300E-03

    ------------------------------------------------
       NWT REQUIRED            4 OUTER ITERATIONS 
       AND A TOTAL OF          7 INNER ITERATIONS.
    ------------------------------------------------

 NO OUTPUT CONTROL FOR STRESS PERIOD   37   TIME STEP    2
 
 SOLVING FOR HEAD 
                                                   Max.-Head-Change                         Max.-Flux-Residual
  Residual-Control   Outer-Iter.   Inner-Iter.     Column Row Layer    Maximum-Head-Change  Column Row Layer    Maximum-Flux-Residual          L2-NORM 
          0                 1           2             4    5     1       0.1658240276E-01       4    5    1         0.8910714770E+00      0.1912248384E+01
          0                 2           2             4    5     1      -0.1607577024E-02       4    5    1        -0.8910787136E-01      0.1881607219E+00
          0                 3           2             4    5     1       0.1096700238E-03       4    5    1         0.6240054524E-02      0.1313676113E-01
          0                 4           1             4    5     1      -0.4356600399E-05       4    5    1        -0.2550334134E-03      0.5372439428E-03

    ------------------------------------------------
       NWT REQUIRED            4 OUTER ITERATIONS 
       AND A TOTAL OF          7 INNER ITERATIONS.
    ------------------------------------------------

 NO OUTPUT CONTROL FOR STRESS PERIOD   37   TIME STEP    3
 
 SOLVING FOR HEAD 
                                                   Max.-Head-Change                         Max.-Flux-Residual
  Residual-Control   Outer-Iter.   Inner-Iter.     Column Row Layer    Maximum-Head-Change  Column Row Layer    Maximum-Flux-Residual          L2-NORM 
          0                 1           2             4    5     1       0.1604791687E-01       4    5    1         0.8619009501E+00      0.1874112950E+01
          0                 2           2             4    5     1      -0.1555154128E-02       4    5    1        -0.8619076688E-01      0.1843454445E+00
          0                 3           2             4    5     1       0.1061138232E-03       4    5    1         0.6036034481E-02      0.1286897154E-01
          0                 4           1             4    5     1      -0.4214666373E-05       4    5    1        -0.2466776732E-03      0.5262993510E-03

    ------------------------------------------------
       NWT REQUIRED            4 OUTER ITERATIONS 
       AND A TOTAL OF          7 INNER ITERATIONS.
    ------------------------------------------------

 NO OUTPUT CONTROL FOR STRESS PERIOD   37   TIME STEP    4
 
 SOLVING FOR HEAD 
                                                   Max.-Head-Change                         Max.-Flux-Residual
  Residual-Control   Outer-Iter.   Inner-Iter.     Column Row Layer    Maximum-Head-Change  Column Row Layer    Maximum-Flux-Residual          L2-NORM 
          0                 1           2             3    7     1       0.1581768681E-01       4    5    1         0.8341533439E+00      0.1838395740E+01
          0                 2           2             3    7     1      -0.1530765756E-02       4    5    1        -0.8341595870E-01      0.1807549938E+00
          0                 3           2             3    7     1       0.1045046866E-03       4    5    1         0.5841961933E-02      0.1261680840E-01
          0                 4           1             3    7     1      -0.4149384763E-05       4    5    1        -0.2387296022E-03      0.5160448879E-03

    ------------------------------------------------
       NWT REQUIRED            4 OUTER ITERATIONS 
       AND A TOTAL OF          7 INNER ITERATIONS.
    ------------------------------------------------

 NO OUTPUT CONTROL FOR STRESS PERIOD   37   TIME STEP    5
 
 SOLVING FOR HEAD 
                                                   Max.-Head-Change                         Max.-Flux-Residual
  Residual-Control   Outer-Iter.   Inner-Iter.     Column Row Layer    Maximum-Head-Change  Column Row Layer    Maximum-Flux-Residual          L2-NORM 
          0                 1           2             3    7     1       0.1562874032E-01       4    5    1         0.8077480621E+00      0.1804912863E+01
          0                 2           2             3    7     1      -0.1512529780E-02       4    5    1        -0.8077538684E-01      0.1773735472E+00
          0                 3           1             3    7     1       0.1032587848E-03       4    5    1         0.5657273666E-02      0.1237925492E-01
          0                 4           1             3    7     1      -0.4100067438E-05       4    5    1        -0.2311760372E-03      0.5063103460E-03

    ------------------------------------------------
       NWT REQUIRED            4 OUTER ITERATIONS 
       AND A TOTAL OF          6 INNER ITERATIONS.
    ------------------------------------------------

 NO OUTPUT CONTROL FOR STRESS PERIOD   37   TIME STEP    6
 
 SOLVING FOR HEAD 
                                                   Max.-Head-Change                         Max.-Flux-Residual
  Residual-Control   Outer-Iter.   Inner-Iter.     Column Row Layer    Maximum-Head-Change  Column Row Layer    Maximum-Flux-Residual          L2-NORM 
          0                 1           2             3    7     1       0.1544180795E-01       4    5    1         0.7826242097E+00      0.1773485175E+01
          0                 2           2             3    7     1      -0.1494472881E-02       4    5    1        -0.7826296141E-01      0.1741858446E+00
          0                 3           1             3    7     1       0.1020254569E-03       4    5    1         0.5481544160E-02      0.1215517083E-01
          0                 4           1             3    7     1      -0.4051102288E-05       4    5    1        -0.2239798428E-03      0.4971725799E-03

    ------------------------------------------------
       NWT REQUIRED            4 OUTER ITERATIONS 
       AND A TOTAL OF          6 INNER ITERATIONS.
    ------------------------------------------------

 NO OUTPUT CONTROL FOR STRESS PERIOD   37   TIME STEP    7
 
 SOLVING FOR HEAD 
                                                   Max.-Head-Change                         Max.-Flux-Residual
  Residual-Control   Outer-Iter.   Inner-Iter.     Column Row Layer    Maximum-Head-Change  Column Row Layer    Maximum-Flux-Residual          L2-NORM 
          0                 1           2             3    7     1       0.1525701246E-01       4    5    1         0.7586950572E+00      0.1743947269E+01
          0                 2           2             3    7     1      -0.1476608527E-02       4    5    1        -0.7587000919E-01      0.1711771230E+00
          0                 3           1             3    7     1       0.1008057095E-03       4    5    1         0.5314167152E-02      0.1194360233E-01
          0                 4           1             3    7     1      -0.4002662581E-05       4    5    1        -0.2171259184E-03      0.4885599112E-03

    ------------------------------------------------
       NWT REQUIRED            4 OUTER ITERATIONS 
       AND A TOTAL OF          6 INNER ITERATIONS.
    ------------------------------------------------

 NO OUTPUT CONTROL FOR STRESS PERIOD   37   TIME STEP    8
 
 SOLVING FOR HEAD 
                                                   Max.-Head-Change                         Max.-Flux-Residual
  Residual-Control   Outer-Iter.   Inner-Iter.     Column Row Layer    Maximum-Head-Change  Column Row Layer    Maximum-Flux-Residual          L2-NORM 
          0                 1           2             3    7     1       0.1507445558E-01       4    5    1         0.7359085846E+00      0.1716158898E+01
          0                 2           2             3    7     1      -0.1458947987E-02       4    5    1        -0.7359132786E-01      0.1683352022E+00
          0                 3           1             3    7     1       0.9960026708E-04       4    5    1         0.5154779346E-02      0.1174365830E-01

    ------------------------------------------------
       NWT REQUIRED            3 OUTER ITERATIONS 
       AND A TOTAL OF          5 INNER ITERATIONS.
    ------------------------------------------------

 NO OUTPUT CONTROL FOR STRESS PERIOD   37   TIME STEP    9
 
 SOLVING FOR HEAD 
                                                   Max.-Head-Change                         Max.-Flux-Residual
  Residual-Control   Outer-Iter.   Inner-Iter.     Column Row Layer    Maximum-Head-Change  Column Row Layer    Maximum-Flux-Residual          L2-NORM 
          0                 1           2             3    7     1       0.1489437837E-01       4    5    1         0.7141935616E+00      0.1689972765E+01
          0                 2           2             3    7     1      -0.1441516221E-02       4    5    1        -0.7141979415E-01      0.1656469126E+00
          0                 3           1             3    7     1       0.9841078237E-04       4    5    1         0.5002882698E-02      0.1155443290E-01

    ------------------------------------------------
       NWT REQUIRED            3 OUTER ITERATIONS 
       AND A TOTAL OF          5 INNER ITERATIONS.
    ------------------------------------------------

 NO OUTPUT CONTROL FOR STRESS PERIOD   37   TIME STEP   10
 
 SOLVING FOR HEAD 
                                                   Max.-Head-Change                         Max.-Flux-Residual
  Residual-Control   Outer-Iter.   Inner-Iter.     Column Row Layer    Maximum-Head-Change  Column Row Layer    Maximum-Flux-Residual          L2-NORM 
          0                 1           2             3    7     1       0.1471669488E-01       4    5    1         0.6934988271E+00      0.1665264175E+01
          0                 2           2             3    7     1      -0.1424306074E-02       4    5    1        -0.6935029173E-01      0.1631011849E+00
          0                 3           1             3    7     1       0.9723673040E-04       4    5    1         0.4858119623E-02      0.1137520662E-01

    ------------------------------------------------
       NWT REQUIRED            3 OUTER ITERATIONS 
       AND A TOTAL OF          5 INNER ITERATIONS.
    ------------------------------------------------

 NO OUTPUT CONTROL FOR STRESS PERIOD   37   TIME STEP   11
 
 SOLVING FOR HEAD 
                                                   Max.-Head-Change                         Max.-Flux-Residual
  Residual-Control   Outer-Iter.   Inner-Iter.     Column Row Layer    Maximum-Head-Change  Column Row Layer    Maximum-Flux-Residual          L2-NORM 
          0                 1           2             3    7     1       0.1454146148E-01       4    5    1         0.6737680303E+00      0.1641926809E+01
          0                 2           2             3    7     1      -0.1407324200E-02       4    5    1        -0.6737718530E-01      0.1606885075E+00
          0                 3           1             3    7     1       0.9607852715E-04       4    5    1         0.4720096391E-02      0.1120530163E-01

    ------------------------------------------------
       NWT REQUIRED            3 OUTER ITERATIONS 
       AND A TOTAL OF          5 INNER ITERATIONS.
    ------------------------------------------------

 NO OUTPUT CONTROL FOR STRESS PERIOD   37   TIME STEP   12
 
 SOLVING FOR HEAD 
                                                   Max.-Head-Change                         Max.-Flux-Residual
  Residual-Control   Outer-Iter.   Inner-Iter.     Column Row Layer    Maximum-Head-Change  Column Row Layer    Maximum-Flux-Residual          L2-NORM 
          0                 1           2             3    7     1       0.1436896486E-01       4    5    1         0.6549555964E+00      0.1619860589E+01
          0                 2           2             3    7     1      -0.1390599559E-02       4    5    1        -0.6549591719E-01      0.1583999238E+00
          0                 3           1             3    7     1       0.9493811237E-04       4    5    1         0.4588494427E-02      0.1104401794E-01

    ------------------------------------------------
       NWT REQUIRED            3 OUTER ITERATIONS 
       AND A TOTAL OF          5 INNER ITERATIONS.
    ------------------------------------------------

 NO OUTPUT CONTROL FOR STRESS PERIOD   37   TIME STEP   13
 
 SOLVING FOR HEAD 
                                                   Max.-Head-Change                         Max.-Flux-Residual
  Residual-Control   Outer-Iter.   Inner-Iter.     Column Row Layer    Maximum-Head-Change  Column Row Layer    Maximum-Flux-Residual          L2-NORM 
          0                 1           2             3    7     1       0.1419899002E-01       4    5    1         0.6370039794E+00      0.1598952289E+01
          0                 2           2             3    7     1      -0.1374112047E-02       4    5    1        -0.6370073262E-01      0.1562249372E+00
          0                 3           1             3    7     1       0.9381409172E-04       4    5    1         0.4462911442E-02      0.1089074472E-01

    ------------------------------------------------
       NWT REQUIRED            3 OUTER ITERATIONS 
       AND A TOTAL OF          5 INNER ITERATIONS.
    ------------------------------------------------

 NO OUTPUT CONTROL FOR STRESS PERIOD   37   TIME STEP   14
 
 SOLVING FOR HEAD 
                                                   Max.-Head-Change                         Max.-Flux-Residual
  Residual-Control   Outer-Iter.   Inner-Iter.     Column Row Layer    Maximum-Head-Change  Column Row Layer    Maximum-Flux-Residual          L2-NORM 
          0                 1           2             3    7     1       0.1403180221E-01       4    5    1         0.6198809395E+00      0.1579126833E+01
          0                 2           2             3    7     1      -0.1357888531E-02       4    5    1        -0.6198840750E-01      0.1541570125E+00
          0                 3           1             3    7     1       0.9270826094E-04       4    5    1         0.4343122122E-02      0.1074497990E-01

    ------------------------------------------------
       NWT REQUIRED            3 OUTER ITERATIONS 
       AND A TOTAL OF          5 INNER ITERATIONS.
    ------------------------------------------------

 NO OUTPUT CONTROL FOR STRESS PERIOD   37   TIME STEP   15
 
 SOLVING FOR HEAD 
                                                   Max.-Head-Change                         Max.-Flux-Residual
  Residual-Control   Outer-Iter.   Inner-Iter.     Column Row Layer    Maximum-Head-Change  Column Row Layer    Maximum-Flux-Residual          L2-NORM 
          0                 1           2             3    7     1       0.1386716671E-01       4    5    1         0.6035344079E+00      0.1560301057E+01
          0                 2           2             3    7     1      -0.1341906977E-02       4    5    1        -0.6035373475E-01      0.1521884031E+00
          0                 3           1             3    7     1       0.9161909469E-04       4    5    1         0.4228762515E-02      0.1060618076E-01

    ------------------------------------------------
       NWT REQUIRED            3 OUTER ITERATIONS 
       AND A TOTAL OF          5 INNER ITERATIONS.
    ------------------------------------------------

 NO OUTPUT CONTROL FOR STRESS PERIOD   37   TIME STEP   16
 
 SOLVING FOR HEAD 
                                                   Max.-Head-Change                         Max.-Flux-Residual
  Residual-Control   Outer-Iter.   Inner-Iter.     Column Row Layer    Maximum-Head-Change  Column Row Layer    Maximum-Flux-Residual          L2-NORM 
          0                 1           2             3    7     1       0.1370533258E-01       4    5    1         0.5879297318E+00      0.1542397606E+01
          0                 2           2             3    7     1      -0.1326192176E-02       4    5    1        -0.5879324900E-01      0.1503117599E+00
          0                 3           1             3    7     1       0.9054826540E-04       4    5    1         0.4119590471E-02      0.1047381889E-01

    ------------------------------------------------
       NWT REQUIRED            3 OUTER ITERATIONS 
       AND A TOTAL OF          5 INNER ITERATIONS.
    ------------------------------------------------

 NO OUTPUT CONTROL FOR STRESS PERIOD   37   TIME STEP   17
 
 SOLVING FOR HEAD 
                                                   Max.-Head-Change                         Max.-Flux-Residual
  Residual-Control   Outer-Iter.   Inner-Iter.     Column Row Layer    Maximum-Head-Change  Column Row Layer    Maximum-Flux-Residual          L2-NORM 
          0                 1           2             3    7     1       0.1354604871E-01       4    5    1         0.5730197688E+00      0.1525349714E+01
          0                 2           2             3    7     1      -0.1310720543E-02       4    5    1        -0.5730223586E-01      0.1485211038E+00
          0                 3           1             3    7     1       0.8949413851E-04       4    5    1         0.4015276253E-02      0.1034751534E-01

    ------------------------------------------------
       NWT REQUIRED            3 OUTER ITERATIONS 
       AND A TOTAL OF          5 INNER ITERATIONS.
    ------------------------------------------------

 NO OUTPUT CONTROL FOR STRESS PERIOD   37   TIME STEP   18
 
 SOLVING FOR HEAD 
                                                   Max.-Head-Change                         Max.-Flux-Residual
  Residual-Control   Outer-Iter.   Inner-Iter.     Column Row Layer    Maximum-Head-Change  Column Row Layer    Maximum-Flux-Residual          L2-NORM 
          0                 1           2             3    7     1       0.1338954980E-01       4    5    1         0.5587747629E+00      0.1509085445E+01
          0                 2           2             3    7     1      -0.1295515344E-02       4    5    1        -0.5587771965E-01      0.1468095722E+00
          0                 3           1             3    7     1       0.8845828658E-04       4    5    1         0.3915611955E-02      0.1022675578E-01

    ------------------------------------------------
       NWT REQUIRED            3 OUTER ITERATIONS 
       AND A TOTAL OF          5 INNER ITERATIONS.
    ------------------------------------------------

 NO OUTPUT CONTROL FOR STRESS PERIOD   37   TIME STEP   19
 
 SOLVING FOR HEAD 
                                                   Max.-Head-Change                         Max.-Flux-Residual
  Residual-Control   Outer-Iter.   Inner-Iter.     Column Row Layer    Maximum-Head-Change  Column Row Layer    Maximum-Flux-Residual          L2-NORM 
          0                 1           2             3    7     1       0.1323581909E-01       4    5    1         0.5451664014E+00      0.1493566755E+01
          0                 2           2             3    7     1      -0.1280575493E-02       4    5    1        -0.5451686901E-01      0.1451735705E+00
          0                 3           1             3    7     1       0.8744061920E-04       4    5    1         0.3820399836E-02      0.1011128369E-01

    ------------------------------------------------
       NWT REQUIRED            3 OUTER ITERATIONS 
       AND A TOTAL OF          5 INNER ITERATIONS.
    ------------------------------------------------

 NO OUTPUT CONTROL FOR STRESS PERIOD   37   TIME STEP   20
 
 SOLVING FOR HEAD 
                                                   Max.-Head-Change                         Max.-Flux-Residual
  Residual-Control   Outer-Iter.   Inner-Iter.     Column Row Layer    Maximum-Head-Change  Column Row Layer    Maximum-Flux-Residual          L2-NORM 
          0                 1           2             3    7     1       0.1308458774E-01       4    5    1         0.5321465121E+00      0.1478715890E+01
          0                 2           2             3    7     1      -0.1265875513E-02       4    5    1        -0.5321486658E-01      0.1436058408E+00
          0                 3           1             3    7     1       0.8643937931E-04       4    5    1         0.3729302825E-02      0.1000067405E-01

    ------------------------------------------------
       NWT REQUIRED            3 OUTER ITERATIONS 
       AND A TOTAL OF          5 INNER ITERATIONS.
    ------------------------------------------------

 NO OUTPUT CONTROL FOR STRESS PERIOD   37   TIME STEP   21
 
 SOLVING FOR HEAD 
                                                   Max.-Head-Change                         Max.-Flux-Residual
  Residual-Control   Outer-Iter.   Inner-Iter.     Column Row Layer    Maximum-Head-Change  Column Row Layer    Maximum-Flux-Residual          L2-NORM 
          0                 1           2             3    7     1       0.1293607770E-01       4    5    1         0.5196985450E+00      0.1464499325E+01
          0                 2           2             3    7     1      -0.1251437108E-02       4    5    1        -0.5197005734E-01      0.1421030703E+00
          0                 3           1             3    7     1       0.8545604199E-04       4    5    1         0.3642205302E-02      0.9894586071E-02

    ------------------------------------------------
       NWT REQUIRED            3 OUTER ITERATIONS 
       AND A TOTAL OF          5 INNER ITERATIONS.
    ------------------------------------------------

 NO OUTPUT CONTROL FOR STRESS PERIOD   37   TIME STEP   22
 
 SOLVING FOR HEAD 
                                                   Max.-Head-Change                         Max.-Flux-Residual
  Residual-Control   Outer-Iter.   Inner-Iter.     Column Row Layer    Maximum-Head-Change  Column Row Layer    Maximum-Flux-Residual          L2-NORM 
          0                 1           2             3    7     1       0.1279025653E-01       4    5    1         0.5077924286E+00      0.1450873008E+01
          0                 2           2             3    7     1      -0.1237257876E-02       4    5    1        -0.5077943405E-01      0.1406612725E+00
          0                 3           1             3    7     1       0.8449042072E-04       4    5    1         0.3558897124E-02      0.9792810644E-02

    ------------------------------------------------
       NWT REQUIRED            3 OUTER ITERATIONS 
       AND A TOTAL OF          5 INNER ITERATIONS.
    ------------------------------------------------

 NO OUTPUT CONTROL FOR STRESS PERIOD   37   TIME STEP   23
 
 SOLVING FOR HEAD 
                                                   Max.-Head-Change                         Max.-Flux-Residual
  Residual-Control   Outer-Iter.   Inner-Iter.     Column Row Layer    Maximum-Head-Change  Column Row Layer    Maximum-Flux-Residual          L2-NORM 
          0                 1           2             3    7     1       0.1264708890E-01       4    5    1         0.4963923979E+00      0.1437791199E+01
          0                 2           2             3    7     1      -0.1223334565E-02       4    5    1        -0.4963942010E-01      0.1392757292E+00
          0                 3           1             3    7     1       0.8354228818E-04       4    5    1         0.3479128289E-02      0.9694971448E-02

    ------------------------------------------------
       NWT REQUIRED            3 OUTER ITERATIONS 
       AND A TOTAL OF          5 INNER ITERATIONS.
    ------------------------------------------------

 NO OUTPUT CONTROL FOR STRESS PERIOD   37   TIME STEP   24
 
 SOLVING FOR HEAD 
                                                   Max.-Head-Change                         Max.-Flux-Residual
  Residual-Control   Outer-Iter.   Inner-Iter.     Column Row Layer    Maximum-Head-Change  Column Row Layer    Maximum-Flux-Residual          L2-NORM 
          0                 1           2             3    7     1       0.1250629320E-01       4    5    1         0.4854794749E+00      0.1425209382E+01
          0                 2           2             3    7     1      -0.1209640133E-02       4    5    1        -0.4854811768E-01      0.1379424837E+00
          0                 3           1             3    7     1       0.8260979242E-04       4    5    1         0.3402765874E-02      0.9600879526E-02

    ------------------------------------------------
       NWT REQUIRED            3 OUTER ITERATIONS 
       AND A TOTAL OF          5 INNER ITERATIONS.
    ------------------------------------------------

 NO OUTPUT CONTROL FOR STRESS PERIOD   37   TIME STEP   25
 
 SOLVING FOR HEAD 
                                                   Max.-Head-Change                         Max.-Flux-Residual
  Residual-Control   Outer-Iter.   Inner-Iter.     Column Row Layer    Maximum-Head-Change  Column Row Layer    Maximum-Flux-Residual          L2-NORM 
          0                 1           2             3    7     1       0.1236832040E-01       4    5    1         0.4750356515E+00      0.1413112817E+01
          0                 2           2             3    7     1      -0.1196218731E-02       4    5    1        -0.4750372590E-01      0.1366598473E+00
          0                 3           1             3    7     1       0.8169593088E-04       4    5    1         0.3329684326E-02      0.9510319887E-02

    ------------------------------------------------
       NWT REQUIRED            3 OUTER ITERATIONS 
       AND A TOTAL OF          5 INNER ITERATIONS.
    ------------------------------------------------

 NO OUTPUT CONTROL FOR STRESS PERIOD   37   TIME STEP   26
 
 SOLVING FOR HEAD 
                                                   Max.-Head-Change                         Max.-Flux-Residual
  Residual-Control   Outer-Iter.   Inner-Iter.     Column Row Layer    Maximum-Head-Change  Column Row Layer    Maximum-Flux-Residual          L2-NORM 
          0                 1           2             3    7     1       0.1223263832E-01       4    5    1         0.4650221409E+00      0.1401450777E+01
          0                 2           2             3    7     1      -0.1183018875E-02       4    5    1        -0.4650236603E-01      0.1354230337E+00
          0                 3           1             3    7     1       0.8079718827E-04       4    5    1         0.3259612155E-02      0.9423009253E-02

    ------------------------------------------------
       NWT REQUIRED            3 OUTER ITERATIONS 
       AND A TOTAL OF          5 INNER ITERATIONS.
    ------------------------------------------------

 NO OUTPUT CONTROL FOR STRESS PERIOD   37   TIME STEP   27
 
 SOLVING FOR HEAD 
                                                   Max.-Head-Change                         Max.-Flux-Residual
  Residual-Control   Outer-Iter.   Inner-Iter.     Column Row Layer    Maximum-Head-Change  Column Row Layer    Maximum-Flux-Residual          L2-NORM 
          0                 1           2             3    7     1       0.1209945156E-01       4    5    1         0.4554313409E+00      0.1390196618E+01
          0                 2           2             3    7     1      -0.1170060546E-02       4    5    1        -0.4554327781E-01      0.1342292716E+00
          0                 3           1             3    7     1       0.7991492558E-04       4    5    1         0.3192496317E-02      0.9338757094E-02

    ------------------------------------------------
       NWT REQUIRED            3 OUTER ITERATIONS 
       AND A TOTAL OF          5 INNER ITERATIONS.
    ------------------------------------------------

 NO OUTPUT CONTROL FOR STRESS PERIOD   37   TIME STEP   28
 
 SOLVING FOR HEAD 
                                                   Max.-Head-Change                         Max.-Flux-Residual
  Residual-Control   Outer-Iter.   Inner-Iter.     Column Row Layer    Maximum-Head-Change  Column Row Layer    Maximum-Flux-Residual          L2-NORM 
          0                 1           2             3    7     1       0.1196895626E-01       4    5    1         0.4462341207E+00      0.1379333372E+01
          0                 2           2             3    7     1      -0.1157363376E-02       4    5    1        -0.4462354810E-01      0.1330770965E+00
          0                 3           1             3    7     1       0.7905046012E-04       4    5    1         0.3128133177E-02      0.9257426135E-02

    ------------------------------------------------
       NWT REQUIRED            3 OUTER ITERATIONS 
       AND A TOTAL OF          5 INNER ITERATIONS.
    ------------------------------------------------

 NO OUTPUT CONTROL FOR STRESS PERIOD   37   TIME STEP   29
 
 SOLVING FOR HEAD 
                                                   Max.-Head-Change                         Max.-Flux-Residual
  Residual-Control   Outer-Iter.   Inner-Iter.     Column Row Layer    Maximum-Head-Change  Column Row Layer    Maximum-Flux-Residual          L2-NORM 
          0                 1           2             3    7     1       0.1184061340E-01       4    5    1         0.4374104647E+00      0.1368820220E+01
          0                 2           2             3    7     1      -0.1144874955E-02       4    5    1        -0.4374117533E-01      0.1319622506E+00
          0                 3           1             3    7     1       0.7820022335E-04       4    5    1         0.3066382787E-02      0.9178714201E-02

    ------------------------------------------------
       NWT REQUIRED            3 OUTER ITERATIONS 
       AND A TOTAL OF          5 INNER ITERATIONS.
    ------------------------------------------------

 NO OUTPUT CONTROL FOR STRESS PERIOD   37   TIME STEP   30



 STREAM LISTING     PERIOD     37   STEP       30

 LAYER ROW COL. STREAM  RCH.  FLOW INTO     FLOW TO   FLOW OUT OF   OVRLND.     DIRECT     STREAM       STREAM     STREAM     STREAM   STREAMBED  STREAMBED
                SEG.NO.  NO.  STRM. RCH.    AQUIFER    STRM. RCH.    RUNOFF     PRECIP       ET          HEAD       DEPTH      WIDTH   CONDCTNC.   GRADIENT

   1    1    1     1     1    8.6247E+00  1.3546E-01   8.4893E+00  0.000E+00  0.000E+00  0.000E+00  1.09390E+03  8.549E-01  7.809E+00  3.514E-02  1.285E+00
   1    2    2     1     2    8.4893E+00  2.0809E-01   8.2812E+00  0.000E+00  0.000E+00  0.000E+00  1.08891E+03  8.492E-01  7.723E+00  5.406E-02  1.283E+00
   1    3    3     1     3    8.2812E+00  1.7583E-01   8.1054E+00  0.000E+00  0.000E+00  0.000E+00  1.08326E+03  8.427E-01  7.626E+00  4.576E-02  1.281E+00
   1    3    4     1     4    8.1054E+00  1.6058E-01   7.9448E+00  0.000E+00  0.000E+00  0.000E+00  1.07824E+03  8.369E-01  7.541E+00  4.185E-02  1.279E+00
   1    4    5     2     1    5.9448E+00  2.7323E-01   5.6716E+00  0.000E+00  0.000E+00  0.000E+00  1.07244E+03  5.030E-01  1.200E+01  7.800E-02  1.168E+00
   1    5    6     2     2    5.6716E+00  2.0942E-01   5.4621E+00  0.000E+00  0.000E+00  0.000E+00  1.06700E+03  4.904E-01  1.200E+01  6.000E-02  1.163E+00
   1    6    6     2     3    5.4621E+00  2.0875E-01   5.2534E+00  0.000E+00  0.000E+00  0.000E+00  1.06227E+03  4.792E-01  1.200E+01  6.000E-02  1.160E+00
   1    7    6     2     4    5.2534E+00  2.0808E-01   5.0453E+00  0.000E+00  0.000E+00  0.000E+00  1.05754E+03  4.679E-01  1.200E+01  6.000E-02  1.156E+00
   1    8    6     2     5    5.0453E+00  2.0739E-01   4.8379E+00  0.000E+00  0.000E+00  0.000E+00  1.05282E+03  4.565E-01  1.200E+01  6.000E-02  1.152E+00
   1    3    5     3     1    2.0000E+00  2.8252E-01   1.7175E+00  0.000E+00  0.000E+00  0.000E+00  1.07555E+03  1.909E+00  9.636E+00  7.227E-02  1.955E+00
   1    3    6     3     2    1.7175E+00  2.4905E-01   1.4684E+00  0.000E+00  0.000E+00  0.000E+00  1.07264E+03  1.727E+00  8.909E+00  6.682E-02  1.864E+00
   1    3    7     3     3    1.4684E+00  1.9718E-01   1.2712E+00  0.000E+00  0.000E+00  0.000E+00  1.06987E+03  1.555E+00  8.218E+00  5.547E-02  1.777E+00
   1    4    8     3     4    1.2712E+00  2.2567E-01   1.0456E+00  0.000E+00  0.000E+00  0.000E+00  1.06682E+03  1.364E+00  7.455E+00  6.709E-02  1.682E+00
   1    5    8     3     5    1.0456E+00  1.5790E-01   8.8768E-01  0.000E+00  0.000E+00  0.000E+00  1.06362E+03  1.164E+00  6.655E+00  4.991E-02  1.582E+00
   1    6    8     3     6    8.8768E-01  5.5980E-02   8.3170E-01  0.000E+00  0.000E+00  0.000E+00  1.06158E+03  1.036E+00  6.145E+00  1.844E-02  1.518E+00
   1    5   10     4     1    1.0000E+01  9.0919E-02   9.9091E+00  0.000E+00  0.000E+00  0.000E+00  1.07836E+03  6.368E-01  1.000E+01  2.500E-02  1.212E+00
   1    5    9     4     2    9.9091E+00  1.8158E-01   9.7275E+00  0.000E+00  0.000E+00  0.000E+00  1.07154E+03  6.315E-01  1.000E+01  5.000E-02  1.211E+00
   1    6    8     4     3    9.7275E+00  1.2689E-01   9.6006E+00  0.000E+00  0.000E+00  0.000E+00  1.06381E+03  6.256E-01  1.000E+01  3.500E-02  1.209E+00
   1    6    8     5     1    1.0432E+01  2.2686E-01   1.0205E+01  0.000E+00  0.000E+00  0.000E+00  1.05868E+03  6.790E-01  1.542E+01  6.166E-02  1.226E+00
   1    7    7     5     2    1.0205E+01  2.7894E-01   9.9265E+00  0.000E+00  0.000E+00  0.000E+00  1.05417E+03  6.732E-01  1.519E+01  7.594E-02  1.224E+00
   1    8    7     5     3    9.9265E+00  1.9221E-01   9.7343E+00  0.000E+00  0.000E+00  0.000E+00  1.04992E+03  6.676E-01  1.497E+01  5.241E-02  1.223E+00
   1    8    6     5     4    9.7343E+00  1.3577E-01   9.5985E+00  0.000E+00  0.000E+00  0.000E+00  1.04691E+03  6.637E-01  1.482E+01  3.706E-02  1.221E+00
   1    9    6     6     1    1.4436E+01  2.3244E-01   1.4204E+01  0.000E+00  0.000E+00  0.000E+00  1.04360E+03  8.741E-01  1.200E+01  6.000E-02  1.291E+00
   1   10    7     6     2    1.4204E+01  2.3193E-01   1.3972E+01  0.000E+00  0.000E+00  0.000E+00  1.03905E+03  8.655E-01  1.200E+01  6.000E-02  1.289E+00
   1   11    7     6     3    1.3972E+01  2.3142E-01   1.3741E+01  0.000E+00  0.000E+00  0.000E+00  1.03449E+03  8.570E-01  1.200E+01  6.000E-02  1.286E+00
   1   12    7     6     4    1.3741E+01  2.3090E-01   1.3510E+01  0.000E+00  0.000E+00  0.000E+00  1.02994E+03  8.484E-01  1.200E+01  6.000E-02  1.283E+00
   1   13    7     6     5    1.3510E+01  4.9702E-03   1.3505E+01  0.000E+00  0.000E+00  0.000E+00  1.02675E+03  8.439E-01  1.200E+01  2.400E-02  6.903E-02
   1   14    9     7     1    1.5000E+02  1.3914E+00   1.4861E+02  0.000E+00  0.000E+00  0.000E+00  1.03987E+03  2.288E+00  5.529E+01  5.593E-01  8.293E-01
   1   13    8     7     2    1.4861E+02  2.0063E+00   1.4660E+02  0.000E+00  0.000E+00  0.000E+00  1.03478E+03  2.279E+00  5.525E+01  6.147E-01  1.088E+00
   1   13    7     7     3    1.4660E+02  1.7543E+00   1.4485E+02  0.000E+00  0.000E+00  0.000E+00  1.02969E+03  2.268E+00  5.521E+01  5.584E-01  1.047E+00
   1   13    6     8     1    1.5835E+02  1.1338E+00   1.5722E+02  0.000E+00  0.000E+00  0.000E+00  1.02475E+03  2.871E+00  4.163E+01  4.242E-01  8.910E-01
   1   13    5     8     2    1.5722E+02  3.8174E-01   1.5684E+02  0.000E+00  0.000E+00  0.000E+00  1.01849E+03  2.866E+00  4.155E+01  4.234E-01  3.005E-01
   1   13    4     8     3    1.5684E+02 -1.7189E+00   1.5856E+02  0.000E+00  0.000E+00  0.000E+00  1.01225E+03  2.870E+00  4.162E+01  4.241E+00 -1.351E-01
   1   13    3     8     4    1.5856E+02 -3.2943E+00   1.6185E+02  0.000E+00  0.000E+00  0.000E+00  1.00601E+03  2.887E+00  4.186E+01  4.266E+00 -2.574E-01
   1   13    2     8     5    1.6185E+02 -2.4929E+00   1.6434E+02  0.000E+00  0.000E+00  0.000E+00  9.99782E+02  2.907E+00  4.215E+01  4.295E+00 -1.935E-01
   1   13    1     8     6    1.6434E+02 -1.9619E+00   1.6631E+02  0.000E+00  0.000E+00  0.000E+00  9.94797E+02  2.921E+00  4.236E+01  2.590E+00 -2.525E-01
   1    8    6     9     1    0.0000E+00  0.0000E+00   0.0000E+00  0.000E+00  0.000E+00  0.000E+00  1.07875E+03  0.000E+00  4.000E+00  0.000E+00  1.000E+00
   1    8    5     9     2    0.0000E+00  0.0000E+00   0.0000E+00  0.000E+00  0.000E+00  0.000E+00  1.07825E+03  0.000E+00  4.000E+00  0.000E+00  1.000E+00





UNSATURATED ZONE PACKAGE VOLUMETRIC BUDGET FOR  TIME STEP    30 STRESS PERIOD   37
  ------------------------------------------------------------------------------



     CUMULATIVE VOLUMES      L**3       RATES FOR THIS TIME STEP      L**3/T
     ------------------                 ------------------------

           IN:                                      IN:
           ---                                      ---
        INFILTRATION =  1859699005.9807          INFILTRATION =           4.4075

          OUT:                                     OUT:
          ----                                     ----
              UZF ET =  1493418679.0114                UZF ET =           0.7250
        UZF RECHARGE =    62326942.4308          UZF RECHARGE =           0.0837

            IN - OUT =   303953384.5385              IN - OUT =           3.5988

          STORAGE:                                 STORAGE:
          --------                                 --------
      STORAGE CHANGE =   303953354.1328        STORAGE CHANGE =           3.5988

 PERCENT DISCREPANCY IS DIFFERENCE BETWEEN IN-OUT MINUS CHANGE IN STORAGE
 DIVIDED BY THE AVERAGE OF IN AND OUT TIMES 100

 PERCENT DISCREPANCY =           0.00     PERCENT DISCREPANCY =           0.00






1
  VOLUMETRIC BUDGET FOR AGRICULTURAL FIELDS AT  END OF TIME STEP   30, STRESS PERIOD  37
  ------------------------------------------------------------------------------

     CUMULATIVE VOLUMES      L**3       RATES FOR THIS TIME STEP      L**3/T
     ------------------                 ------------------------

           IN:                                      IN:
           ---                                      ---
               AG WELLS  =   871999872.0000                 AG WELLS  =           0.0000
      DIVERSION SEGMENTS =   570691712.0000        DIVERSION SEGMENTS =           0.0000
           GW IRRIGATION =           0.0000             GW IRRIGATION =           0.0000
           SW IRRIGATION =           0.0000             SW IRRIGATION =           0.0000
        SYSTEM LOSSES GW =           0.0000          SYSTEM LOSSES GW =           0.0000
        SYSTEM LOSSES SW =           0.0000          SYSTEM LOSSES SW =           0.0000

                TOTAL IN =  1442691584.0000                  TOTAL IN =           0.0000

          OUT:                                     OUT:
          ----                                     ----
               AG WELLS  =           0.0000                 AG WELLS  =           0.0000
      DIVERSION SEGMENTS =           0.0000        DIVERSION SEGMENTS =           0.0000
           GW IRRIGATION =   871999872.0000             GW IRRIGATION =           0.0000
           SW IRRIGATION =   570702976.0000             SW IRRIGATION =           0.0000
        SYSTEM LOSSES GW =           0.0000          SYSTEM LOSSES GW =           0.0000
        SYSTEM LOSSES SW =           0.0000          SYSTEM LOSSES SW =           0.0000

               TOTAL OUT =  1442702848.0000                 TOTAL OUT =           0.0000

                IN - OUT =      -11264.0000                  IN - OUT =           0.0000

     PERCENT DISCREPANCY =          -0.00         PERCENT DISCREPANCY =           0.00



1
  VOLUMETRIC BUDGET FOR ENTIRE MODEL AT END OF TIME STEP   30, STRESS PERIOD  37
  ------------------------------------------------------------------------------

     CUMULATIVE VOLUMES      L**3       RATES FOR THIS TIME STEP      L**3/T
     ------------------                 ------------------------

           IN:                                      IN:
           ---                                      ---
             STORAGE     =  1301970304.0000               STORAGE     =           3.7337
       CONSTANT HEAD     =           0.0000         CONSTANT HEAD     =           0.0000
     HEAD DEP BOUNDS     =    27332032.0000       HEAD DEP BOUNDS     =           0.2895
      STREAM LEAKAGE     =  1125906048.0000        STREAM LEAKAGE     =          11.7876
        UZF RECHARGE     =    62326940.0000          UZF RECHARGE     =       8.3743E-02
               GW ET     =           0.0000                 GW ET     =           0.0000
     SURFACE LEAKAGE     =           0.0000       SURFACE LEAKAGE     =           0.0000
           AG WELLS      =           0.0000             AG WELLS      =           0.0000

                TOTAL IN =  2517535488.0000                  TOTAL IN =          15.8946

          OUT:                                     OUT:
          ----                                     ----
             STORAGE     =   671310912.0000               STORAGE     =           6.1401
       CONSTANT HEAD     =           0.0000         CONSTANT HEAD     =           0.0000
     HEAD DEP BOUNDS     =    27276178.0000       HEAD DEP BOUNDS     =           0.2871
      STREAM LEAKAGE     =   946953088.0000        STREAM LEAKAGE     =           9.4680
        UZF RECHARGE     =           0.0000          UZF RECHARGE     =           0.0000
               GW ET     =           0.0000                 GW ET     =           0.0000
     SURFACE LEAKAGE     =           0.0000       SURFACE LEAKAGE     =           0.0000
           AG WELLS      =   871999872.0000             AG WELLS      =           0.0000

               TOTAL OUT =  2517539840.0000                 TOTAL OUT =          15.8951

                IN - OUT =       -4352.0000                  IN - OUT =      -4.6635E-04

     PERCENT DISCREPANCY =          -0.00         PERCENT DISCREPANCY =          -0.00






         TIME SUMMARY AT END OF TIME STEP   30 IN STRESS PERIOD   37
                    SECONDS     MINUTES      HOURS       DAYS        YEARS
                    -----------------------------------------------------------
   TIME STEP LENGTH  87667.      1461.1      24.352      1.0147     2.77799E-03
 STRESS PERIOD TIME 2.63000E+06  43833.      730.56      30.440     8.33397E-02
         TOTAL TIME 9.47660E+07 1.57943E+06  26324.      1096.8      3.0030    
1
1
                            STRESS PERIOD NO.   38, LENGTH =   2630000.    
                            -----------------------------------------------

                              NUMBER OF TIME STEPS =    30

                               MULTIPLIER FOR DELT =     1.000

                            INITIAL TIME STEP SIZE =   87666.66    

 REUSING NON-PARAMETER GHB CELLS FROM LAST STRESS PERIOD

      2 GHB CELLS

 REUSING STREAM SEGMENT DATA FROM LAST STRESS PERIOD



            AREAL INFILTRATION RATE
 READING ON UNIT   19 WITH FORMAT: (10F4.0)            

            1           2           3           4           5           6           7           8           9          10
 ........................................................................................................................
   1   1.2000E-09   0.000       0.000       0.000       0.000       0.000       0.000       0.000       0.000       0.000    
   2   2.1000E-09  2.0000E-09  8.0000E-10  8.5000E-09   0.000       0.000       0.000       0.000       0.000       0.000    
   3   5.0000E-10  1.1000E-09  8.8000E-09  5.5000E-09   0.000       0.000       0.000       0.000       0.000       0.000    
   4   8.5000E-09  1.1000E-09  1.1000E-09  1.1000E-09  2.0000E-09   0.000       0.000       0.000       0.000       0.000    
   5   8.5000E-09  1.1000E-09  1.1000E-09  1.1000E-09  1.1000E-09   0.000       0.000       0.000       0.000       0.000    
   6   8.5000E-09  5.2000E-09  2.1000E-09  1.1000E-09  1.5000E-09   0.000       0.000       0.000       0.000       0.000    
   7   8.5000E-09  5.2000E-09  2.1000E-09  1.2000E-09  2.0000E-09   0.000       0.000       0.000       0.000       0.000    
   8   5.0000E-10  5.2000E-09  2.1000E-09  1.2000E-09  5.0000E-09   0.000       0.000       0.000       0.000       0.000    
   9   5.0000E-10  5.2000E-09  2.1000E-09  1.2000E-09  5.0000E-09   0.000       0.000       0.000       0.000       0.000    
  10   5.0000E-10  5.2000E-09  2.1000E-09  1.2000E-09  5.8000E-09   0.000       0.000       0.000       0.000       0.000    
  11   1.0000E-10  1.1000E-09  1.1000E-09  1.2000E-09  5.0000E-09   0.000       0.000       0.000       0.000       0.000    
  12   1.1000E-09  1.1000E-09  1.1000E-09  1.1000E-09  2.0000E-09   0.000       0.000       0.000       0.000       0.000    
  13   1.1000E-09  2.2000E-09  2.2000E-09  2.1000E-09  1.0000E-09   0.000       0.000       0.000       0.000       0.000    
  14   2.0000E-10  5.5000E-09  5.5000E-09  5.2000E-09  1.0000E-09   0.000       0.000       0.000       0.000       0.000    
  15    0.000      8.8000E-09  8.8000E-09   0.000       0.000       0.000       0.000       0.000       0.000       0.000    

                  ET RATE =  5.000000E-10

 USING ET EXTINCTION DEPTH FROM PREVIOUS STRESS PERIOD. CURRENT PERIOD IS:      38

 USING EXTINCTION WATER CONTENT FROM PREVIOUS STRESS PERIOD. CURRENT PERIOD IS:      38

 USING AIR ENTRY PRESSURE FROM PREVIOUS STRESS PERIOD. CURRENT PERIOD IS:      38

 USING ROOT PRESSURE HEAD FROM PREVIOUS STRESS PERIOD. CURRENT PERIOD IS:      38

 USING ROOT ACTIVITY FROM PREVIOUS STRESS PERIOD. CURRENT PERIOD IS:      38

 PROCESSING AG STRESS PERIOD DATA

 READING AG STRESS PERIOD DATA

 READING IRRIGATION SEGMENT

 READING IRRIGATION WELL

 READING SUPPLEMENTAL WELL

 END PROCESSING AG STRESS PERIOD DATA OPTIONS
 
 SOLVING FOR HEAD 
                                                   Max.-Head-Change                         Max.-Flux-Residual
  Residual-Control   Outer-Iter.   Inner-Iter.     Column Row Layer    Maximum-Head-Change  Column Row Layer    Maximum-Flux-Residual          L2-NORM 
          0                 1           2             3    7     1       0.1171486784E-01       4    5    1         0.4289487413E+00      0.1358646925E+01
          0                 2           2             3    7     1      -0.1132638737E-02       4    5    1        -0.4289499627E-01      0.1308840347E+00
          0                 3           1             3    7     1       0.7736716870E-04       4    5    1         0.3007163643E-02      0.9102639865E-02

    ------------------------------------------------
       NWT REQUIRED            3 OUTER ITERATIONS 
       AND A TOTAL OF          5 INNER ITERATIONS.
    ------------------------------------------------

 NO OUTPUT CONTROL FOR STRESS PERIOD   38   TIME STEP    1
 
 SOLVING FOR HEAD 
                                                   Max.-Head-Change                         Max.-Flux-Residual
  Residual-Control   Outer-Iter.   Inner-Iter.     Column Row Layer    Maximum-Head-Change  Column Row Layer    Maximum-Flux-Residual          L2-NORM 
          0                 1           2             3    7     1       0.1159118026E-01       4    5    1         0.4208306561E+00      0.1350797918E+01
          0                 2           2             3    7     1      -0.1120602425E-02       4    5    1        -0.4208318143E-01      0.1300443147E+00
          0                 3           1             3    7     1       0.7654772986E-04       4    5    1         0.2950348071E-02      0.9043022632E-02

    ------------------------------------------------
       NWT REQUIRED            3 OUTER ITERATIONS 
       AND A TOTAL OF          5 INNER ITERATIONS.
    ------------------------------------------------

 NO OUTPUT CONTROL FOR STRESS PERIOD   38   TIME STEP    2
 
 SOLVING FOR HEAD 
                                                   Max.-Head-Change                         Max.-Flux-Residual
  Residual-Control   Outer-Iter.   Inner-Iter.     Column Row Layer    Maximum-Head-Change  Column Row Layer    Maximum-Flux-Residual          L2-NORM 
          0                 1           2             3    7     1       0.1146999357E-01       4    5    1         0.4130289050E+00      0.1344152171E+01
          0                 2           2             3    7     1      -0.1108809086E-02       4    5    1        -0.4130300041E-01      0.1293277470E+00
          0                 3           1             3    7     1       0.7574484040E-04       4    5    1         0.2895745020E-02      0.8991650892E-02

    ------------------------------------------------
       NWT REQUIRED            3 OUTER ITERATIONS 
       AND A TOTAL OF          5 INNER ITERATIONS.
    ------------------------------------------------

 NO OUTPUT CONTROL FOR STRESS PERIOD   38   TIME STEP    3
 
 SOLVING FOR HEAD 
                                                   Max.-Head-Change                         Max.-Flux-Residual
  Residual-Control   Outer-Iter.   Inner-Iter.     Column Row Layer    Maximum-Head-Change  Column Row Layer    Maximum-Flux-Residual          L2-NORM 
          0                 1           2             3    7     1       0.1135100898E-01       4    5    1         0.4055322274E+00      0.1334638530E+01
          0                 2           2             3    7     1      -0.1097230127E-02       4    5    1        -0.4055332711E-01      0.1283236457E+00
          0                 3           1             3    7     1       0.7495653889E-04       4    5    1         0.2843275610E-02      0.8921019403E-02

    ------------------------------------------------
       NWT REQUIRED            3 OUTER ITERATIONS 
       AND A TOTAL OF          5 INNER ITERATIONS.
    ------------------------------------------------

 NO OUTPUT CONTROL FOR STRESS PERIOD   38   TIME STEP    4
 
 SOLVING FOR HEAD 
                                                   Max.-Head-Change                         Max.-Flux-Residual
  Residual-Control   Outer-Iter.   Inner-Iter.     Column Row Layer    Maximum-Head-Change  Column Row Layer    Maximum-Flux-Residual          L2-NORM 
          0                 1           2             3    7     1       0.1123417834E-01       4    5    1         0.3983330016E+00      0.1325410271E+01
          0                 2           2             3    7     1      -0.1085860619E-02       4    5    1        -0.3983339933E-01      0.1273503089E+00
          0                 3           1             3    7     1       0.7418249788E-04       4    5    1         0.2792886812E-02      0.8852633596E-02

    ------------------------------------------------
       NWT REQUIRED            3 OUTER ITERATIONS 
       AND A TOTAL OF          5 INNER ITERATIONS.
    ------------------------------------------------

 NO OUTPUT CONTROL FOR STRESS PERIOD   38   TIME STEP    5
 
 SOLVING FOR HEAD 
                                                   Max.-Head-Change                         Max.-Flux-Residual
  Residual-Control   Outer-Iter.   Inner-Iter.     Column Row Layer    Maximum-Head-Change  Column Row Layer    Maximum-Flux-Residual          L2-NORM 
          0                 1           2             3    7     1       0.1111969347E-01       4    5    1         0.3914021887E+00      0.1316438180E+01
          0                 2           2             3    7     1      -0.1074719667E-02       4    5    1        -0.3914031319E-01      0.1264049353E+00
          0                 3           1             3    7     1       0.7342400360E-04       4    5    1         0.2744375228E-02      0.8785916625E-02

    ------------------------------------------------
       NWT REQUIRED            3 OUTER ITERATIONS 
       AND A TOTAL OF          5 INNER ITERATIONS.
    ------------------------------------------------

 NO OUTPUT CONTROL FOR STRESS PERIOD   38   TIME STEP    6
 
 SOLVING FOR HEAD 
                                                   Max.-Head-Change                         Max.-Flux-Residual
  Residual-Control   Outer-Iter.   Inner-Iter.     Column Row Layer    Maximum-Head-Change  Column Row Layer    Maximum-Flux-Residual          L2-NORM 
          0                 1           2             3    7     1       0.1100725986E-01       4    5    1         0.3847339454E+00      0.1307714259E+01
          0                 2           2             3    7     1      -0.1063778350E-02       4    5    1        -0.3847348428E-01      0.1254865749E+00
          0                 3           1             3    7     1       0.7267909637E-04       4    5    1         0.2697700308E-02      0.8721340441E-02

    ------------------------------------------------
       NWT REQUIRED            3 OUTER ITERATIONS 
       AND A TOTAL OF          5 INNER ITERATIONS.
    ------------------------------------------------

 NO OUTPUT CONTROL FOR STRESS PERIOD   38   TIME STEP    7
 
 SOLVING FOR HEAD 
                                                   Max.-Head-Change                         Max.-Flux-Residual
  Residual-Control   Outer-Iter.   Inner-Iter.     Column Row Layer    Maximum-Head-Change  Column Row Layer    Maximum-Flux-Residual          L2-NORM 
          0                 1           2             3    7     1       0.1089682639E-01       4    5    1         0.3783228388E+00      0.1299222536E+01
          0                 2           2             3    7     1      -0.1053032120E-02       4    5    1        -0.3783236931E-01      0.1245938031E+00
          0                 3           1             3    7     1       0.7194745266E-04       4    5    1         0.2652823959E-02      0.8658382569E-02

    ------------------------------------------------
       NWT REQUIRED            3 OUTER ITERATIONS 
       AND A TOTAL OF          5 INNER ITERATIONS.
    ------------------------------------------------

 NO OUTPUT CONTROL FOR STRESS PERIOD   38   TIME STEP    8
 
 SOLVING FOR HEAD 
                                                   Max.-Head-Change                         Max.-Flux-Residual
  Residual-Control   Outer-Iter.   Inner-Iter.     Column Row Layer    Maximum-Head-Change  Column Row Layer    Maximum-Flux-Residual          L2-NORM 
          0                 1           2             3    7     1       0.1078834703E-01       4    5    1         0.3721419527E+00      0.1290944816E+01
          0                 2           2             3    7     1      -0.1042476215E-02       4    5    1        -0.3721427665E-01      0.1237244682E+00
          0                 3           1             3    7     1       0.7122875759E-04       4    5    1         0.2609557898E-02      0.8597072179E-02

    ------------------------------------------------
       NWT REQUIRED            3 OUTER ITERATIONS 
       AND A TOTAL OF          5 INNER ITERATIONS.
    ------------------------------------------------

 NO OUTPUT CONTROL FOR STRESS PERIOD   38   TIME STEP    9
 
 SOLVING FOR HEAD 
                                                   Max.-Head-Change                         Max.-Flux-Residual
  Residual-Control   Outer-Iter.   Inner-Iter.     Column Row Layer    Maximum-Head-Change  Column Row Layer    Maximum-Flux-Residual          L2-NORM 
          0                 1           2             3    7     1       0.1068201646E-01       4    5    1         0.3661948776E+00      0.1282873605E+01
          0                 2           2             3    7     1      -0.1031996628E-02       4    5    1        -0.3661956532E-01      0.1168253177E+00
          0                 3           1             3    7     1       0.7052428350E-04       4    5    1         0.2567932447E-02      0.8107643259E-02

    ------------------------------------------------
       NWT REQUIRED            3 OUTER ITERATIONS 
       AND A TOTAL OF          5 INNER ITERATIONS.
    ------------------------------------------------

 NO OUTPUT CONTROL FOR STRESS PERIOD   38   TIME STEP   10
 
 SOLVING FOR HEAD 
                                                   Max.-Head-Change                         Max.-Flux-Residual
  Residual-Control   Outer-Iter.   Inner-Iter.     Column Row Layer    Maximum-Head-Change  Column Row Layer    Maximum-Flux-Residual          L2-NORM 
          0                 1           2             3    7     1       0.1057780416E-01       4    5    1         0.3604706499E+00      0.1275198224E+01
          0                 2           2             3    7     1      -0.1021741104E-02       4    5    1        -0.3604713898E-01      0.1162203049E+00
          0                 3           1             3    7     1       0.6985191580E-04       4    5    1         0.2527867367E-02      0.8005730717E-02

    ------------------------------------------------
       NWT REQUIRED            3 OUTER ITERATIONS 
       AND A TOTAL OF          5 INNER ITERATIONS.
    ------------------------------------------------

 NO OUTPUT CONTROL FOR STRESS PERIOD   38   TIME STEP   11
 
 SOLVING FOR HEAD 
                                                   Max.-Head-Change                         Max.-Flux-Residual
  Residual-Control   Outer-Iter.   Inner-Iter.     Column Row Layer    Maximum-Head-Change  Column Row Layer    Maximum-Flux-Residual          L2-NORM 
          0                 1           2             3    7     1       0.1047599437E-01       4    5    1         0.3549444117E+00      0.1267459267E+01
          0                 2           2             3    7     1      -0.1011812566E-02       4    5    1        -0.3549451176E-01      0.1154147749E+00
          0                 3           1             3    7     1       0.6917649833E-04       4    5    1         0.2489182143E-02      0.7948975392E-02

    ------------------------------------------------
       NWT REQUIRED            3 OUTER ITERATIONS 
       AND A TOTAL OF          5 INNER ITERATIONS.
    ------------------------------------------------

 NO OUTPUT CONTROL FOR STRESS PERIOD   38   TIME STEP   12
 
 SOLVING FOR HEAD 
                                                   Max.-Head-Change                         Max.-Flux-Residual
  Residual-Control   Outer-Iter.   Inner-Iter.     Column Row Layer    Maximum-Head-Change  Column Row Layer    Maximum-Flux-Residual          L2-NORM 
          0                 1           2             3    7     1       0.1037614207E-01       4    5    1         0.3496293296E+00      0.1259885281E+01
          0                 2           2             3    7     1      -0.1002077572E-02       4    5    1        -0.3496300037E-01      0.1146265974E+00
          0                 3           1             3    7     1       0.6851416190E-04       4    5    1         0.2451974115E-02      0.7893553217E-02

    ------------------------------------------------
       NWT REQUIRED            3 OUTER ITERATIONS 
       AND A TOTAL OF          5 INNER ITERATIONS.
    ------------------------------------------------

 NO OUTPUT CONTROL FOR STRESS PERIOD   38   TIME STEP   13
 
 SOLVING FOR HEAD 
                                                   Max.-Head-Change                         Max.-Flux-Residual
  Residual-Control   Outer-Iter.   Inner-Iter.     Column Row Layer    Maximum-Head-Change  Column Row Layer    Maximum-Flux-Residual          L2-NORM 
          0                 1           2             3    7     1       0.1027841646E-01       4    5    1         0.3444935583E+00      0.1252479017E+01
          0                 2           2             3    7     1      -0.9925525024E-03       4    5    1        -0.3444942020E-01      0.1138558565E+00
          0                 3           1             3    7     1       0.6786602671E-04       4    5    1         0.2416020599E-02      0.7839263213E-02

    ------------------------------------------------
       NWT REQUIRED            3 OUTER ITERATIONS 
       AND A TOTAL OF          5 INNER ITERATIONS.
    ------------------------------------------------

 NO OUTPUT CONTROL FOR STRESS PERIOD   38   TIME STEP   14
 
 SOLVING FOR HEAD 
                                                   Max.-Head-Change                         Max.-Flux-Residual
  Residual-Control   Outer-Iter.   Inner-Iter.     Column Row Layer    Maximum-Head-Change  Column Row Layer    Maximum-Flux-Residual          L2-NORM 
          0                 1           2             3    7     1       0.1018250007E-01       4    5    1         0.3395513453E+00      0.1245220373E+01
          0                 2           2             3    7     1      -0.9832039311E-03       4    5    1        -0.3395519606E-01      0.1096058799E+00
          0                 3           1             3    7     1       0.6723030869E-04       4    5    1         0.2381421362E-02      0.7538150778E-02

    ------------------------------------------------
       NWT REQUIRED            3 OUTER ITERATIONS 
       AND A TOTAL OF          5 INNER ITERATIONS.
    ------------------------------------------------

 NO OUTPUT CONTROL FOR STRESS PERIOD   38   TIME STEP   15
 
 SOLVING FOR HEAD 
                                                   Max.-Head-Change                         Max.-Flux-Residual
  Residual-Control   Outer-Iter.   Inner-Iter.     Column Row Layer    Maximum-Head-Change  Column Row Layer    Maximum-Flux-Residual          L2-NORM 
          0                 1           2             3    7     1       0.1008857453E-01       4    5    1         0.3347790294E+00      0.1238193327E+01
          0                 2           2             3    7     1      -0.9740519543E-03       4    5    1        -0.3347796178E-01      0.1093878570E+00
          0                 3           1             3    7     1       0.6660794745E-04       4    5    1         0.2348010571E-02      0.7493636764E-02

    ------------------------------------------------
       NWT REQUIRED            3 OUTER ITERATIONS 
       AND A TOTAL OF          5 INNER ITERATIONS.
    ------------------------------------------------

 NO OUTPUT CONTROL FOR STRESS PERIOD   38   TIME STEP   16
 
 SOLVING FOR HEAD 
                                                   Max.-Head-Change                         Max.-Flux-Residual
  Residual-Control   Outer-Iter.   Inner-Iter.     Column Row Layer    Maximum-Head-Change  Column Row Layer    Maximum-Flux-Residual          L2-NORM 
          0                 1           2             3    7     1       0.9996333130E-02       4    5    1         0.3301761653E+00      0.1231166347E+01
          0                 2           2             3    7     1      -0.9650667385E-03       4    5    1        -0.3301767284E-01      0.1086630169E+00
          0                 3           1             3    7     1       0.6599641330E-04       4    5    1         0.2315785322E-02      0.7442719766E-02

    ------------------------------------------------
       NWT REQUIRED            3 OUTER ITERATIONS 
       AND A TOTAL OF          5 INNER ITERATIONS.
    ------------------------------------------------

 NO OUTPUT CONTROL FOR STRESS PERIOD   38   TIME STEP   17
 
 SOLVING FOR HEAD 
                                                   Max.-Head-Change                         Max.-Flux-Residual
  Residual-Control   Outer-Iter.   Inner-Iter.     Column Row Layer    Maximum-Head-Change  Column Row Layer    Maximum-Flux-Residual          L2-NORM 
          0                 1           2             3    7     1       0.9905960650E-02       4    5    1         0.3257277250E+00      0.1224268236E+01
          0                 2           2             3    7     1      -0.9562653771E-03       4    5    1        -0.3257282641E-01      0.1079537121E+00
          0                 3           1             3    7     1       0.6539732840E-04       4    5    1         0.2284640270E-02      0.7392895247E-02

    ------------------------------------------------
       NWT REQUIRED            3 OUTER ITERATIONS 
       AND A TOTAL OF          5 INNER ITERATIONS.
    ------------------------------------------------

 NO OUTPUT CONTROL FOR STRESS PERIOD   38   TIME STEP   18
 
 SOLVING FOR HEAD 
                                                   Max.-Head-Change                         Max.-Flux-Residual
  Residual-Control   Outer-Iter.   Inner-Iter.     Column Row Layer    Maximum-Head-Change  Column Row Layer    Maximum-Flux-Residual          L2-NORM 
          0                 1           2             3    7     1       0.9817395394E-02       4    5    1         0.3214341034E+00      0.1217490505E+01
          0                 2           2             3    7     1      -0.9476417626E-03       4    5    1        -0.3214346199E-01      0.1072589575E+00
          0                 3           1             3    7     1       0.6481028035E-04       4    5    1         0.2254578361E-02      0.7344154530E-02

    ------------------------------------------------
       NWT REQUIRED            3 OUTER ITERATIONS 
       AND A TOTAL OF          5 INNER ITERATIONS.
    ------------------------------------------------

 NO OUTPUT CONTROL FOR STRESS PERIOD   38   TIME STEP   19
 
 SOLVING FOR HEAD 
                                                   Max.-Head-Change                         Max.-Flux-Residual
  Residual-Control   Outer-Iter.   Inner-Iter.     Column Row Layer    Maximum-Head-Change  Column Row Layer    Maximum-Flux-Residual          L2-NORM 
          0                 1           2             3    7     1       0.9730579414E-02       4    5    1         0.3172881867E+00      0.1210826342E+01
          0                 2           2             3    7     1      -0.9391901656E-03       4    5    1        -0.3172886818E-01      0.1065782171E+00
          0                 3           1             3    7     1       0.6423488218E-04       4    5    1         0.2225549879E-02      0.7296343825E-02

    ------------------------------------------------
       NWT REQUIRED            3 OUTER ITERATIONS 
       AND A TOTAL OF          5 INNER ITERATIONS.
    ------------------------------------------------

 NO OUTPUT CONTROL FOR STRESS PERIOD   38   TIME STEP   20
 
 SOLVING FOR HEAD 
                                                   Max.-Head-Change                         Max.-Flux-Residual
  Residual-Control   Outer-Iter.   Inner-Iter.     Column Row Layer    Maximum-Head-Change  Column Row Layer    Maximum-Flux-Residual          L2-NORM 
          0                 1           2             3    7     1       0.9645213220E-02       4    5    1         0.3132833792E+00      0.1204272570E+01
          0                 2           2             3    7     1      -0.9308811995E-03       4    5    1        -0.3132838540E-01      0.1059108887E+00
          0                 3           1             3    7     1       0.6366914135E-04       4    5    1         0.2197508411E-02      0.7249564807E-02

    ------------------------------------------------
       NWT REQUIRED            3 OUTER ITERATIONS 
       AND A TOTAL OF          5 INNER ITERATIONS.
    ------------------------------------------------

 NO OUTPUT CONTROL FOR STRESS PERIOD   38   TIME STEP   21
 
 SOLVING FOR HEAD 
                                                   Max.-Head-Change                         Max.-Flux-Residual
  Residual-Control   Outer-Iter.   Inner-Iter.     Column Row Layer    Maximum-Head-Change  Column Row Layer    Maximum-Flux-Residual          L2-NORM 
          0                 1           2             3    7     1       0.9561248935E-02       4    5    1         0.3094131537E+00      0.1197825911E+01
          0                 2           2             3    7     1      -0.9227104590E-03       4    5    1        -0.3094136094E-01      0.1052569637E+00
          0                 3           1             3    7     1       0.6311275006E-04       4    5    1         0.2170408567E-02      0.7203737812E-02

    ------------------------------------------------
       NWT REQUIRED            3 OUTER ITERATIONS 
       AND A TOTAL OF          5 INNER ITERATIONS.
    ------------------------------------------------

 NO OUTPUT CONTROL FOR STRESS PERIOD   38   TIME STEP   22
 
 SOLVING FOR HEAD 
                                                   Max.-Head-Change                         Max.-Flux-Residual
  Residual-Control   Outer-Iter.   Inner-Iter.     Column Row Layer    Maximum-Head-Change  Column Row Layer    Maximum-Flux-Residual          L2-NORM 
          0                 1           2             3    7     1       0.9479125087E-02       4    5    1         0.3056641855E+00      0.1191482397E+01
          0                 2           2             3    7     1      -0.9147201711E-03       4    5    1        -0.3056646231E-01      0.1046155193E+00
          0                 3           1             3    7     1       0.6256859738E-04       4    5    1         0.2144157025E-02      0.7158813718E-02

    ------------------------------------------------
       NWT REQUIRED            3 OUTER ITERATIONS 
       AND A TOTAL OF          5 INNER ITERATIONS.
    ------------------------------------------------

 NO OUTPUT CONTROL FOR STRESS PERIOD   38   TIME STEP   23
 
 SOLVING FOR HEAD 
                                                   Max.-Head-Change                         Max.-Flux-Residual
  Residual-Control   Outer-Iter.   Inner-Iter.     Column Row Layer    Maximum-Head-Change  Column Row Layer    Maximum-Flux-Residual          L2-NORM 
          0                 1           2             3    7     1       0.9398299342E-02       4    5    1         0.3020458040E+00      0.1185230586E+01
          0                 2           2             3    7     1      -0.9068578572E-03       4    5    1        -0.3020462244E-01      0.1039861546E+00
          0                 3           1             3    7     1       0.6203310162E-04       4    5    1         0.2118818968E-02      0.7114746105E-02

    ------------------------------------------------
       NWT REQUIRED            3 OUTER ITERATIONS 
       AND A TOTAL OF          5 INNER ITERATIONS.
    ------------------------------------------------

 NO OUTPUT CONTROL FOR STRESS PERIOD   38   TIME STEP   24
 
 SOLVING FOR HEAD 
                                                   Max.-Head-Change                         Max.-Flux-Residual
  Residual-Control   Outer-Iter.   Inner-Iter.     Column Row Layer    Maximum-Head-Change  Column Row Layer    Maximum-Flux-Residual          L2-NORM 
          0                 1           2             3    7     1       0.9318973022E-02       4    5    1         0.2985372096E+00      0.1179070722E+01
          0                 2           2             3    7     1      -0.8991426778E-03       4    5    1        -0.2985376136E-01      0.1033683306E+00
          0                 3           1             3    7     1       0.6150758022E-04       4    5    1         0.2094248989E-02      0.7071551781E-02

    ------------------------------------------------
       NWT REQUIRED            3 OUTER ITERATIONS 
       AND A TOTAL OF          5 INNER ITERATIONS.
    ------------------------------------------------

 NO OUTPUT CONTROL FOR STRESS PERIOD   38   TIME STEP   25
 
 SOLVING FOR HEAD 
                                                   Max.-Head-Change                         Max.-Flux-Residual
  Residual-Control   Outer-Iter.   Inner-Iter.     Column Row Layer    Maximum-Head-Change  Column Row Layer    Maximum-Flux-Residual          L2-NORM 
          0                 1           2             3    7     1       0.9241096833E-02       4    5    1         0.2951482572E+00      0.1173003683E+01
          0                 2           2             3    7     1      -0.8915701049E-03       4    5    1        -0.2951486459E-01      0.1027621912E+00
          0                 3           1             3    7     1       0.6099171733E-04       4    5    1         0.2070516060E-02      0.7029150267E-02

    ------------------------------------------------
       NWT REQUIRED            3 OUTER ITERATIONS 
       AND A TOTAL OF          5 INNER ITERATIONS.
    ------------------------------------------------

 NO OUTPUT CONTROL FOR STRESS PERIOD   38   TIME STEP   26
 
 SOLVING FOR HEAD 
                                                   Max.-Head-Change                         Max.-Flux-Residual
  Residual-Control   Outer-Iter.   Inner-Iter.     Column Row Layer    Maximum-Head-Change  Column Row Layer    Maximum-Flux-Residual          L2-NORM 
          0                 1           2             3    7     1       0.9164625578E-02       4    5    1         0.2918662304E+00      0.1167026965E+01
          0                 2           2             3    7     1      -0.8841353319E-03       4    5    1        -0.2918666045E-01      0.1021674613E+00
          0                 3           1             3    7     1       0.6048519878E-04       4    5    1         0.2047531182E-02      0.6987613541E-02

    ------------------------------------------------
       NWT REQUIRED            3 OUTER ITERATIONS 
       AND A TOTAL OF          5 INNER ITERATIONS.
    ------------------------------------------------

 NO OUTPUT CONTROL FOR STRESS PERIOD   38   TIME STEP   27
 
 SOLVING FOR HEAD 
                                                   Max.-Head-Change                         Max.-Flux-Residual
  Residual-Control   Outer-Iter.   Inner-Iter.     Column Row Layer    Maximum-Head-Change  Column Row Layer    Maximum-Flux-Residual          L2-NORM 
          0                 1           2             3    7     1       0.9089514932E-02       4    7    1         0.2905989485E+00      0.1161125635E+01
          0                 2           2             3    7     1      -0.8768343281E-03       4    5    1        -0.2886867034E-01      0.1015825427E+00
          0                 3           1             3    7     1       0.5998774115E-04       4    5    1         0.2025260784E-02      0.6946753147E-02

    ------------------------------------------------
       NWT REQUIRED            3 OUTER ITERATIONS 
       AND A TOTAL OF          5 INNER ITERATIONS.
    ------------------------------------------------

 NO OUTPUT CONTROL FOR STRESS PERIOD   38   TIME STEP   28
 
 SOLVING FOR HEAD 
                                                   Max.-Head-Change                         Max.-Flux-Residual
  Residual-Control   Outer-Iter.   Inner-Iter.     Column Row Layer    Maximum-Head-Change  Column Row Layer    Maximum-Flux-Residual          L2-NORM 
          0                 1           2             3    7     1       0.9015483183E-02       4    7    1         0.2904262876E+00      0.1155312564E+01
          0                 2           2             3    7     1      -0.8696392729E-03       4    5    1        -0.2855970150E-01      0.1010084050E+00
          0                 3           1             3    7     1       0.5949746430E-04       4    5    1         0.2003621608E-02      0.6906679247E-02

    ------------------------------------------------
       NWT REQUIRED            3 OUTER ITERATIONS 
       AND A TOTAL OF          5 INNER ITERATIONS.
    ------------------------------------------------

 NO OUTPUT CONTROL FOR STRESS PERIOD   38   TIME STEP   29
 
 SOLVING FOR HEAD 
                                                   Max.-Head-Change                         Max.-Flux-Residual
  Residual-Control   Outer-Iter.   Inner-Iter.     Column Row Layer    Maximum-Head-Change  Column Row Layer    Maximum-Flux-Residual          L2-NORM 
          0                 1           2             3    7     1       0.8942978064E-02       4    7    1         0.2901980355E+00      0.1149573108E+01
          0                 2           2             3    7     1      -0.8625940204E-03       4    5    1        -0.2826157075E-01      0.1004442452E+00
          0                 3           1             3    7     1       0.5901734382E-04       4    5    1         0.1982740644E-02      0.6867356144E-02

    ------------------------------------------------
       NWT REQUIRED            3 OUTER ITERATIONS 
       AND A TOTAL OF          5 INNER ITERATIONS.
    ------------------------------------------------

 NO OUTPUT CONTROL FOR STRESS PERIOD   38   TIME STEP   30



 STREAM LISTING     PERIOD     38   STEP       30

 LAYER ROW COL. STREAM  RCH.  FLOW INTO     FLOW TO   FLOW OUT OF   OVRLND.     DIRECT     STREAM       STREAM     STREAM     STREAM   STREAMBED  STREAMBED
                SEG.NO.  NO.  STRM. RCH.    AQUIFER    STRM. RCH.    RUNOFF     PRECIP       ET          HEAD       DEPTH      WIDTH   CONDCTNC.   GRADIENT

   1    1    1     1     1    7.1248E+00  1.2038E-01   7.0044E+00  0.000E+00  0.000E+00  0.000E+00  1.09385E+03  8.024E-01  7.035E+00  3.166E-02  1.267E+00
   1    2    2     1     2    7.0044E+00  1.8491E-01   6.8195E+00  0.000E+00  0.000E+00  0.000E+00  1.08886E+03  7.976E-01  6.956E+00  4.869E-02  1.266E+00
   1    3    3     1     3    6.8195E+00  1.5635E-01   6.6631E+00  0.000E+00  0.000E+00  0.000E+00  1.08321E+03  7.928E-01  6.870E+00  4.122E-02  1.264E+00
   1    3    4     1     4    6.6631E+00  1.4286E-01   6.5203E+00  0.000E+00  0.000E+00  0.000E+00  1.07820E+03  7.886E-01  6.794E+00  3.771E-02  1.263E+00
   1    4    5     2     1    4.5203E+00  2.6715E-01   4.2531E+00  0.000E+00  0.000E+00  0.000E+00  1.07236E+03  4.250E-01  1.200E+01  7.800E-02  1.142E+00
   1    5    6     2     2    4.2531E+00  2.0467E-01   4.0485E+00  0.000E+00  0.000E+00  0.000E+00  1.06692E+03  4.112E-01  1.200E+01  6.000E-02  1.137E+00
   1    6    6     2     3    4.0485E+00  2.0393E-01   3.8445E+00  0.000E+00  0.000E+00  0.000E+00  1.06219E+03  3.989E-01  1.200E+01  6.000E-02  1.133E+00
   1    7    6     2     4    3.8445E+00  2.0319E-01   3.6413E+00  0.000E+00  0.000E+00  0.000E+00  1.05746E+03  3.864E-01  1.200E+01  6.000E-02  1.129E+00
   1    8    6     2     5    3.6413E+00  2.0242E-01   3.4389E+00  0.000E+00  0.000E+00  0.000E+00  1.05273E+03  3.737E-01  1.200E+01  6.000E-02  1.125E+00
   1    3    5     3     1    2.0000E+00  2.8252E-01   1.7175E+00  0.000E+00  0.000E+00  0.000E+00  1.07555E+03  1.909E+00  9.636E+00  7.227E-02  1.955E+00
   1    3    6     3     2    1.7175E+00  2.4905E-01   1.4684E+00  0.000E+00  0.000E+00  0.000E+00  1.07264E+03  1.727E+00  8.909E+00  6.682E-02  1.864E+00
   1    3    7     3     3    1.4684E+00  1.9718E-01   1.2712E+00  0.000E+00  0.000E+00  0.000E+00  1.06987E+03  1.555E+00  8.218E+00  5.547E-02  1.777E+00
   1    4    8     3     4    1.2712E+00  2.2567E-01   1.0456E+00  0.000E+00  0.000E+00  0.000E+00  1.06682E+03  1.364E+00  7.455E+00  6.709E-02  1.682E+00
   1    5    8     3     5    1.0456E+00  1.5790E-01   8.8768E-01  0.000E+00  0.000E+00  0.000E+00  1.06362E+03  1.164E+00  6.655E+00  4.991E-02  1.582E+00
   1    6    8     3     6    8.8768E-01  5.5980E-02   8.3170E-01  0.000E+00  0.000E+00  0.000E+00  1.06158E+03  1.036E+00  6.145E+00  1.844E-02  1.518E+00
   1    5   10     4     1    1.0000E+01  9.0919E-02   9.9091E+00  0.000E+00  0.000E+00  0.000E+00  1.07836E+03  6.368E-01  1.000E+01  2.500E-02  1.212E+00
   1    5    9     4     2    9.9091E+00  1.8158E-01   9.7275E+00  0.000E+00  0.000E+00  0.000E+00  1.07154E+03  6.315E-01  1.000E+01  5.000E-02  1.211E+00
   1    6    8     4     3    9.7275E+00  1.2689E-01   9.6006E+00  0.000E+00  0.000E+00  0.000E+00  1.06381E+03  6.256E-01  1.000E+01  3.500E-02  1.209E+00
   1    6    8     5     1    1.0432E+01  2.2686E-01   1.0205E+01  0.000E+00  0.000E+00  0.000E+00  1.05868E+03  6.790E-01  1.542E+01  6.166E-02  1.226E+00
   1    7    7     5     2    1.0205E+01  2.7894E-01   9.9265E+00  0.000E+00  0.000E+00  0.000E+00  1.05417E+03  6.732E-01  1.519E+01  7.594E-02  1.224E+00
   1    8    7     5     3    9.9265E+00  1.9221E-01   9.7343E+00  0.000E+00  0.000E+00  0.000E+00  1.04992E+03  6.676E-01  1.497E+01  5.241E-02  1.223E+00
   1    8    6     5     4    9.7343E+00  1.3577E-01   9.5985E+00  0.000E+00  0.000E+00  0.000E+00  1.04691E+03  6.637E-01  1.482E+01  3.706E-02  1.221E+00
   1    9    6     6     1    1.3037E+01  2.2931E-01   1.2808E+01  0.000E+00  0.000E+00  0.000E+00  1.04355E+03  8.218E-01  1.200E+01  6.000E-02  1.274E+00
   1   10    7     6     2    1.2808E+01  2.2878E-01   1.2579E+01  0.000E+00  0.000E+00  0.000E+00  1.03899E+03  8.131E-01  1.200E+01  6.000E-02  1.271E+00
   1   11    7     6     3    1.2579E+01  2.2825E-01   1.2351E+01  0.000E+00  0.000E+00  0.000E+00  1.03444E+03  8.042E-01  1.200E+01  6.000E-02  1.268E+00
   1   12    7     6     4    1.2351E+01  2.2772E-01   1.2123E+01  0.000E+00  0.000E+00  0.000E+00  1.02989E+03  7.954E-01  1.200E+01  6.000E-02  1.265E+00
   1   13    7     6     5    1.2123E+01  4.0519E-03   1.2119E+01  0.000E+00  0.000E+00  0.000E+00  1.02670E+03  7.909E-01  1.200E+01  2.400E-02  5.628E-02
   1   14    9     7     1    1.5000E+02  1.3927E+00   1.4861E+02  0.000E+00  0.000E+00  0.000E+00  1.03987E+03  2.288E+00  5.529E+01  5.593E-01  8.300E-01
   1   13    8     7     2    1.4861E+02  2.0103E+00   1.4660E+02  0.000E+00  0.000E+00  0.000E+00  1.03478E+03  2.279E+00  5.525E+01  6.147E-01  1.090E+00
   1   13    7     7     3    1.4660E+02  1.7625E+00   1.4483E+02  0.000E+00  0.000E+00  0.000E+00  1.02969E+03  2.268E+00  5.521E+01  5.584E-01  1.052E+00
   1   13    6     8     1    1.5695E+02  1.1346E+00   1.5582E+02  0.000E+00  0.000E+00  0.000E+00  1.02474E+03  2.861E+00  4.149E+01  4.228E-01  8.946E-01
   1   13    5     8     2    1.5582E+02  3.8400E-01   1.5544E+02  0.000E+00  0.000E+00  0.000E+00  1.01848E+03  2.856E+00  4.141E+01  4.220E-01  3.033E-01
   1   13    4     8     3    1.5544E+02 -1.7084E+00   1.5714E+02  0.000E+00  0.000E+00  0.000E+00  1.01224E+03  2.861E+00  4.148E+01  4.227E+00 -1.347E-01
   1   13    3     8     4    1.5714E+02 -3.2868E+00   1.6043E+02  0.000E+00  0.000E+00  0.000E+00  1.00600E+03  2.878E+00  4.173E+01  4.252E+00 -2.577E-01
   1   13    2     8     5    1.6043E+02 -2.4925E+00   1.6292E+02  0.000E+00  0.000E+00  0.000E+00  9.99772E+02  2.897E+00  4.201E+01  4.281E+00 -1.941E-01
   1   13    1     8     6    1.6292E+02 -1.9626E+00   1.6489E+02  0.000E+00  0.000E+00  0.000E+00  9.94787E+02  2.912E+00  4.222E+01  2.582E+00 -2.534E-01
   1    8    6     9     1    0.0000E+00  0.0000E+00   0.0000E+00  0.000E+00  0.000E+00  0.000E+00  1.07875E+03  0.000E+00  4.000E+00  0.000E+00  1.000E+00
   1    8    5     9     2    0.0000E+00  0.0000E+00   0.0000E+00  0.000E+00  0.000E+00  0.000E+00  1.07825E+03  0.000E+00  4.000E+00  0.000E+00  1.000E+00





UNSATURATED ZONE PACKAGE VOLUMETRIC BUDGET FOR  TIME STEP    30 STRESS PERIOD   38
  ------------------------------------------------------------------------------



     CUMULATIVE VOLUMES      L**3       RATES FOR THIS TIME STEP      L**3/T
     ------------------                 ------------------------

           IN:                                      IN:
           ---                                      ---
        INFILTRATION =  1871290730.5388          INFILTRATION =           4.4075

          OUT:                                     OUT:
          ----                                     ----
              UZF ET =  1495325446.7706                UZF ET =           0.7250
        UZF RECHARGE =    62751574.5444          UZF RECHARGE =           0.2018

            IN - OUT =   313213709.2238              IN - OUT =           3.4807

          STORAGE:                                 STORAGE:
          --------                                 --------
      STORAGE CHANGE =   313213678.7517        STORAGE CHANGE =           3.4807

 PERCENT DISCREPANCY IS DIFFERENCE BETWEEN IN-OUT MINUS CHANGE IN STORAGE
 DIVIDED BY THE AVERAGE OF IN AND OUT TIMES 100

 PERCENT DISCREPANCY =           0.00     PERCENT DISCREPANCY =           0.00






1
  VOLUMETRIC BUDGET FOR AGRICULTURAL FIELDS AT  END OF TIME STEP   30, STRESS PERIOD  38
  ------------------------------------------------------------------------------

     CUMULATIVE VOLUMES      L**3       RATES FOR THIS TIME STEP      L**3/T
     ------------------                 ------------------------

           IN:                                      IN:
           ---                                      ---
               AG WELLS  =   871999872.0000                 AG WELLS  =           0.0000
      DIVERSION SEGMENTS =   570691712.0000        DIVERSION SEGMENTS =           0.0000
           GW IRRIGATION =           0.0000             GW IRRIGATION =           0.0000
           SW IRRIGATION =           0.0000             SW IRRIGATION =           0.0000
        SYSTEM LOSSES GW =           0.0000          SYSTEM LOSSES GW =           0.0000
        SYSTEM LOSSES SW =           0.0000          SYSTEM LOSSES SW =           0.0000

                TOTAL IN =  1442691584.0000                  TOTAL IN =           0.0000

          OUT:                                     OUT:
          ----                                     ----
               AG WELLS  =           0.0000                 AG WELLS  =           0.0000
      DIVERSION SEGMENTS =           0.0000        DIVERSION SEGMENTS =           0.0000
           GW IRRIGATION =   871999872.0000             GW IRRIGATION =           0.0000
           SW IRRIGATION =   570702976.0000             SW IRRIGATION =           0.0000
        SYSTEM LOSSES GW =           0.0000          SYSTEM LOSSES GW =           0.0000
        SYSTEM LOSSES SW =           0.0000          SYSTEM LOSSES SW =           0.0000

               TOTAL OUT =  1442702848.0000                 TOTAL OUT =           0.0000

                IN - OUT =      -11264.0000                  IN - OUT =           0.0000

     PERCENT DISCREPANCY =          -0.00         PERCENT DISCREPANCY =           0.00



1
  VOLUMETRIC BUDGET FOR ENTIRE MODEL AT END OF TIME STEP   30, STRESS PERIOD  38
  ------------------------------------------------------------------------------

     CUMULATIVE VOLUMES      L**3       RATES FOR THIS TIME STEP      L**3/T
     ------------------                 ------------------------

           IN:                                      IN:
           ---                                      ---
             STORAGE     =  1311056000.0000               STORAGE     =           3.0984
       CONSTANT HEAD     =           0.0000         CONSTANT HEAD     =           0.0000
     HEAD DEP BOUNDS     =    28093642.0000       HEAD DEP BOUNDS     =           0.2896
      STREAM LEAKAGE     =  1156629632.0000        STREAM LEAKAGE     =          11.6896
        UZF RECHARGE     =    62751576.0000          UZF RECHARGE     =           0.2018
               GW ET     =           0.0000                 GW ET     =           0.0000
     SURFACE LEAKAGE     =           0.0000       SURFACE LEAKAGE     =           0.0000
           AG WELLS      =           0.0000             AG WELLS      =           0.0000

                TOTAL IN =  2558530816.0000                  TOTAL IN =          15.2794

          OUT:                                     OUT:
          ----                                     ----
             STORAGE     =   686586496.0000               STORAGE     =           5.5424
       CONSTANT HEAD     =           0.0000         CONSTANT HEAD     =           0.0000
     HEAD DEP BOUNDS     =    28030726.0000       HEAD DEP BOUNDS     =           0.2868
      STREAM LEAKAGE     =   971918912.0000        STREAM LEAKAGE     =           9.4504
        UZF RECHARGE     =           0.0000          UZF RECHARGE     =           0.0000
               GW ET     =           0.0000                 GW ET     =           0.0000
     SURFACE LEAKAGE     =           0.0000       SURFACE LEAKAGE     =           0.0000
           AG WELLS      =   871999872.0000             AG WELLS      =           0.0000

               TOTAL OUT =  2558536192.0000                 TOTAL OUT =          15.2796

                IN - OUT =       -5376.0000                  IN - OUT =      -1.6403E-04

     PERCENT DISCREPANCY =          -0.00         PERCENT DISCREPANCY =          -0.00






         TIME SUMMARY AT END OF TIME STEP   30 IN STRESS PERIOD   38
                    SECONDS     MINUTES      HOURS       DAYS        YEARS
                    -----------------------------------------------------------
   TIME STEP LENGTH  87667.      1461.1      24.352      1.0147     2.77799E-03
 STRESS PERIOD TIME 2.63000E+06  43833.      730.56      30.440     8.33397E-02
         TOTAL TIME 9.73959E+07 1.62326E+06  27054.      1127.3      3.0863    
1
1
                            STRESS PERIOD NO.   39, LENGTH =   2630000.    
                            -----------------------------------------------

                              NUMBER OF TIME STEPS =    30

                               MULTIPLIER FOR DELT =     1.000

                            INITIAL TIME STEP SIZE =   87666.66    

 REUSING NON-PARAMETER GHB CELLS FROM LAST STRESS PERIOD

      2 GHB CELLS

 REUSING STREAM SEGMENT DATA FROM LAST STRESS PERIOD



            AREAL INFILTRATION RATE
 READING ON UNIT   19 WITH FORMAT: (10F4.0)            

            1           2           3           4           5           6           7           8           9          10
 ........................................................................................................................
   1   1.2000E-09   0.000       0.000       0.000       0.000       0.000       0.000       0.000       0.000       0.000    
   2   2.1000E-09  2.0000E-09  8.0000E-10  8.5000E-09   0.000       0.000       0.000       0.000       0.000       0.000    
   3   5.0000E-10  1.1000E-09  8.8000E-09  5.5000E-09   0.000       0.000       0.000       0.000       0.000       0.000    
   4   8.5000E-09  1.1000E-09  1.1000E-09  1.1000E-09  2.0000E-09   0.000       0.000       0.000       0.000       0.000    
   5   8.5000E-09  1.1000E-09  1.1000E-09  1.1000E-09  1.1000E-09   0.000       0.000       0.000       0.000       0.000    
   6   8.5000E-09  5.2000E-09  2.1000E-09  1.1000E-09  1.5000E-09   0.000       0.000       0.000       0.000       0.000    
   7   8.5000E-09  5.2000E-09  2.1000E-09  1.2000E-09  2.0000E-09   0.000       0.000       0.000       0.000       0.000    
   8   5.0000E-10  5.2000E-09  2.1000E-09  1.2000E-09  5.0000E-09   0.000       0.000       0.000       0.000       0.000    
   9   5.0000E-10  5.2000E-09  2.1000E-09  1.2000E-09  5.0000E-09   0.000       0.000       0.000       0.000       0.000    
  10   5.0000E-10  5.2000E-09  2.1000E-09  1.2000E-09  5.8000E-09   0.000       0.000       0.000       0.000       0.000    
  11   1.0000E-10  1.1000E-09  1.1000E-09  1.2000E-09  5.0000E-09   0.000       0.000       0.000       0.000       0.000    
  12   1.1000E-09  1.1000E-09  1.1000E-09  1.1000E-09  2.0000E-09   0.000       0.000       0.000       0.000       0.000    
  13   1.1000E-09  2.2000E-09  2.2000E-09  2.1000E-09  1.0000E-09   0.000       0.000       0.000       0.000       0.000    
  14   2.0000E-10  5.5000E-09  5.5000E-09  5.2000E-09  1.0000E-09   0.000       0.000       0.000       0.000       0.000    
  15    0.000      8.8000E-09  8.8000E-09   0.000       0.000       0.000       0.000       0.000       0.000       0.000    

                  ET RATE =  5.000000E-10

 USING ET EXTINCTION DEPTH FROM PREVIOUS STRESS PERIOD. CURRENT PERIOD IS:      39

 USING EXTINCTION WATER CONTENT FROM PREVIOUS STRESS PERIOD. CURRENT PERIOD IS:      39

 USING AIR ENTRY PRESSURE FROM PREVIOUS STRESS PERIOD. CURRENT PERIOD IS:      39

 USING ROOT PRESSURE HEAD FROM PREVIOUS STRESS PERIOD. CURRENT PERIOD IS:      39

 USING ROOT ACTIVITY FROM PREVIOUS STRESS PERIOD. CURRENT PERIOD IS:      39

 PROCESSING AG STRESS PERIOD DATA

 READING AG STRESS PERIOD DATA

 READING IRRIGATION SEGMENT

 READING IRRIGATION WELL

 READING SUPPLEMENTAL WELL

 END PROCESSING AG STRESS PERIOD DATA OPTIONS
 
 SOLVING FOR HEAD 
                                                   Max.-Head-Change                         Max.-Flux-Residual
  Residual-Control   Outer-Iter.   Inner-Iter.     Column Row Layer    Maximum-Head-Change  Column Row Layer    Maximum-Flux-Residual          L2-NORM 
          0                 1           2             3    7     1       0.8871469001E-02       4    7    1         0.2899241623E+00      0.1143905246E+01
          0                 2           2             3    7     1      -0.8556467218E-03       4    5    1        -0.2797156900E-01      0.9988948209E-01
          0                 3           1             3    7     1       0.5854385598E-04       4    5    1         0.1962428271E-02      0.6828711017E-02

    ------------------------------------------------
       NWT REQUIRED            3 OUTER ITERATIONS 
       AND A TOTAL OF          5 INNER ITERATIONS.
    ------------------------------------------------

 NO OUTPUT CONTROL FOR STRESS PERIOD   39   TIME STEP    1
 
 SOLVING FOR HEAD 
                                                   Max.-Head-Change                         Max.-Flux-Residual
  Residual-Control   Outer-Iter.   Inner-Iter.     Column Row Layer    Maximum-Head-Change  Column Row Layer    Maximum-Flux-Residual          L2-NORM 
          0                 1           2             3    7     1       0.8801409000E-02       4    7    1         0.2896068604E+00      0.1138313772E+01
          0                 2           2             3    7     1      -0.8488413764E-03       4    5    1        -0.2769009031E-01      0.9934400975E-01
          0                 3           1             3    7     1       0.5808000169E-04       4    5    1         0.1942712297E-02      0.6790694459E-02

    ------------------------------------------------
       NWT REQUIRED            3 OUTER ITERATIONS 
       AND A TOTAL OF          5 INNER ITERATIONS.
    ------------------------------------------------

 NO OUTPUT CONTROL FOR STRESS PERIOD   39   TIME STEP    2
 
 SOLVING FOR HEAD 
                                                   Max.-Head-Change                         Max.-Flux-Residual
  Residual-Control   Outer-Iter.   Inner-Iter.     Column Row Layer    Maximum-Head-Change  Column Row Layer    Maximum-Flux-Residual          L2-NORM 
          0                 1           2             3    7     1       0.8732272453E-02       4    7    1         0.2892559735E+00      0.1131792021E+01
          0                 2           2             3    7     1      -0.8421266315E-03       5    6    1        -0.2751004507E-01      0.9869510207E-01
          0                 3           1             3    7     1       0.5762229097E-04       5    6    1         0.1935303011E-02      0.6745392504E-02

    ------------------------------------------------
       NWT REQUIRED            3 OUTER ITERATIONS 
       AND A TOTAL OF          5 INNER ITERATIONS.
    ------------------------------------------------

 NO OUTPUT CONTROL FOR STRESS PERIOD   39   TIME STEP    3
 
 SOLVING FOR HEAD 
                                                   Max.-Head-Change                         Max.-Flux-Residual
  Residual-Control   Outer-Iter.   Inner-Iter.     Column Row Layer    Maximum-Head-Change  Column Row Layer    Maximum-Flux-Residual          L2-NORM 
          0                 1           2             3    7     1       0.8664271106E-02       4    7    1         0.2888514235E+00      0.1125976242E+01
          0                 2           2             3    7     1      -0.8355235447E-03       5    6    1        -0.2745927590E-01      0.9812535221E-01
          0                 3           1             3    7     1       0.5717214219E-04       5    6    1         0.1931720757E-02      0.6705626536E-02

    ------------------------------------------------
       NWT REQUIRED            3 OUTER ITERATIONS 
       AND A TOTAL OF          5 INNER ITERATIONS.
    ------------------------------------------------

 NO OUTPUT CONTROL FOR STRESS PERIOD   39   TIME STEP    4
 
 SOLVING FOR HEAD 
                                                   Max.-Head-Change                         Max.-Flux-Residual
  Residual-Control   Outer-Iter.   Inner-Iter.     Column Row Layer    Maximum-Head-Change  Column Row Layer    Maximum-Flux-Residual          L2-NORM 
          0                 1           2             3    7     1       0.8597370980E-02       4    7    1         0.2884182099E+00      0.1120606064E+01
          0                 2           2             3    7     1      -0.8290282436E-03       5    6    1        -0.2740675961E-01      0.9760665474E-01
          0                 3           1             3    7     1       0.5672931100E-04       5    6    1         0.1928015784E-02      0.6669564919E-02

    ------------------------------------------------
       NWT REQUIRED            3 OUTER ITERATIONS 
       AND A TOTAL OF          5 INNER ITERATIONS.
    ------------------------------------------------

 NO OUTPUT CONTROL FOR STRESS PERIOD   39   TIME STEP    5
 
 SOLVING FOR HEAD 
                                                   Max.-Head-Change                         Max.-Flux-Residual
  Residual-Control   Outer-Iter.   Inner-Iter.     Column Row Layer    Maximum-Head-Change  Column Row Layer    Maximum-Flux-Residual          L2-NORM 
          0                 1           2             3    7     1       0.8531540333E-02       4    7    1         0.2879505228E+00      0.1115299092E+01
          0                 2           2             3    7     1      -0.8226377820E-03       5    6    1        -0.2734991097E-01      0.9709626100E-01
          0                 3           1             3    7     1       0.5629359041E-04       5    6    1         0.1924006903E-02      0.6634101353E-02

    ------------------------------------------------
       NWT REQUIRED            3 OUTER ITERATIONS 
       AND A TOTAL OF          5 INNER ITERATIONS.
    ------------------------------------------------

 NO OUTPUT CONTROL FOR STRESS PERIOD   39   TIME STEP    6
 
 SOLVING FOR HEAD 
                                                   Max.-Head-Change                         Max.-Flux-Residual
  Residual-Control   Outer-Iter.   Inner-Iter.     Column Row Layer    Maximum-Head-Change  Column Row Layer    Maximum-Flux-Residual          L2-NORM 
          0                 1           2             3    7     1       0.8466989815E-02       4    7    1         0.2874426543E+00      0.1110067815E+01
          0                 2           2             3    7     1      -0.8163727661E-03       5    6    1        -0.2729064861E-01      0.9659540331E-01
          0                 3           1             3    7     1       0.5586638108E-04       5    6    1         0.1919828840E-02      0.6599336365E-02

    ------------------------------------------------
       NWT REQUIRED            3 OUTER ITERATIONS 
       AND A TOTAL OF          5 INNER ITERATIONS.
    ------------------------------------------------

 NO OUTPUT CONTROL FOR STRESS PERIOD   39   TIME STEP    7
 
 SOLVING FOR HEAD 
                                                   Max.-Head-Change                         Max.-Flux-Residual
  Residual-Control   Outer-Iter.   Inner-Iter.     Column Row Layer    Maximum-Head-Change  Column Row Layer    Maximum-Flux-Residual          L2-NORM 
          0                 1           2             3    7     1       0.8403197339E-02       4    7    1         0.2869115766E+00      0.1104894868E+01
          0                 2           2             3    7     1      -0.8101820325E-03       5    6    1        -0.2722752183E-01      0.9610202009E-01
          0                 3           1             3    7     1       0.5544421146E-04       5    6    1         0.1915379781E-02      0.6565089621E-02

    ------------------------------------------------
       NWT REQUIRED            3 OUTER ITERATIONS 
       AND A TOTAL OF          5 INNER ITERATIONS.
    ------------------------------------------------

 NO OUTPUT CONTROL FOR STRESS PERIOD   39   TIME STEP    8
 
 SOLVING FOR HEAD 
                                                   Max.-Head-Change                         Max.-Flux-Residual
  Residual-Control   Outer-Iter.   Inner-Iter.     Column Row Layer    Maximum-Head-Change  Column Row Layer    Maximum-Flux-Residual          L2-NORM 
          0                 1           2             3    7     1       0.8340382431E-02       4    7    1         0.2863437095E+00      0.1099784292E+01
          0                 2           2             3    7     1      -0.8040872478E-03       5    6    1        -0.2716162210E-01      0.9561693804E-01
          0                 3           1             3    7     1       0.5502854586E-04       5    6    1         0.1910736056E-02      0.6531541604E-02

    ------------------------------------------------
       NWT REQUIRED            3 OUTER ITERATIONS 
       AND A TOTAL OF          5 INNER ITERATIONS.
    ------------------------------------------------

 NO OUTPUT CONTROL FOR STRESS PERIOD   39   TIME STEP    9
 
 SOLVING FOR HEAD 
                                                   Max.-Head-Change                         Max.-Flux-Residual
  Residual-Control   Outer-Iter.   Inner-Iter.     Column Row Layer    Maximum-Head-Change  Column Row Layer    Maximum-Flux-Residual          L2-NORM 
          0                 1           2             3    7     1       0.8278756990E-02       4    7    1         0.2857408716E+00      0.1094732788E+01
          0                 2           2             3    7     1      -0.7981089626E-03       5    6    1        -0.2709231997E-01      0.9513932467E-01
          0                 3           1             3    7     1       0.5462078704E-04       5    6    1         0.1905854117E-02      0.6498367754E-02

    ------------------------------------------------
       NWT REQUIRED            3 OUTER ITERATIONS 
       AND A TOTAL OF          5 INNER ITERATIONS.
    ------------------------------------------------

 NO OUTPUT CONTROL FOR STRESS PERIOD   39   TIME STEP   10
 
 SOLVING FOR HEAD 
                                                   Max.-Head-Change                         Max.-Flux-Residual
  Residual-Control   Outer-Iter.   Inner-Iter.     Column Row Layer    Maximum-Head-Change  Column Row Layer    Maximum-Flux-Residual          L2-NORM 
          0                 1           2             3    7     1       0.8217805655E-02       4    7    1         0.2851198991E+00      0.1089743437E+01
          0                 2           2             3    7     1      -0.7921966827E-03       5    6    1        -0.2702151941E-01      0.9466957096E-01
          0                 3           1             3    7     1       0.5421750762E-04       5    6    1         0.1900866658E-02      0.6465848472E-02

    ------------------------------------------------
       NWT REQUIRED            3 OUTER ITERATIONS 
       AND A TOTAL OF          5 INNER ITERATIONS.
    ------------------------------------------------

 NO OUTPUT CONTROL FOR STRESS PERIOD   39   TIME STEP   11
 
 SOLVING FOR HEAD 
                                                   Max.-Head-Change                         Max.-Flux-Residual
  Residual-Control   Outer-Iter.   Inner-Iter.     Column Row Layer    Maximum-Head-Change  Column Row Layer    Maximum-Flux-Residual          L2-NORM 
          0                 1           2             3    7     1       0.8157991889E-02       4    7    1         0.2844741809E+00      0.1084809217E+01
          0                 2           2             3    7     1      -0.7863956280E-03       5    6    1        -0.2694767869E-01      0.9420765148E-01
          0                 3           1             3    7     1       0.5382178317E-04       5    6    1         0.1895666252E-02      0.6433880874E-02

    ------------------------------------------------
       NWT REQUIRED            3 OUTER ITERATIONS 
       AND A TOTAL OF          5 INNER ITERATIONS.
    ------------------------------------------------

 NO OUTPUT CONTROL FOR STRESS PERIOD   39   TIME STEP   12
 
 SOLVING FOR HEAD 
                                                   Max.-Head-Change                         Max.-Flux-Residual
  Residual-Control   Outer-Iter.   Inner-Iter.     Column Row Layer    Maximum-Head-Change  Column Row Layer    Maximum-Flux-Residual          L2-NORM 
          0                 1           2             3    7     1       0.8098799010E-02       4    7    1         0.2837978095E+00      0.1079926692E+01
          0                 2           2             3    7     1      -0.7806544276E-03       4    5    1        -0.2508599250E-01      0.9080440570E-01
          0                 3           1             3    7     1       0.5343034522E-04       4    5    1         0.1760359558E-02      0.6172411740E-02

    ------------------------------------------------
       NWT REQUIRED            3 OUTER ITERATIONS 
       AND A TOTAL OF          5 INNER ITERATIONS.
    ------------------------------------------------

 NO OUTPUT CONTROL FOR STRESS PERIOD   39   TIME STEP   13
 
 SOLVING FOR HEAD 
                                                   Max.-Head-Change                         Max.-Flux-Residual
  Residual-Control   Outer-Iter.   Inner-Iter.     Column Row Layer    Maximum-Head-Change  Column Row Layer    Maximum-Flux-Residual          L2-NORM 
          0                 1           2             3    7     1       0.8040697068E-02       4    7    1         0.2831056505E+00      0.1075201069E+01
          0                 2           2             3    7     1      -0.7750185250E-03       4    5    1        -0.2488649370E-01      0.8999867087E-01
          0                 3           1             3    7     1       0.5304662956E-04       4    5    1         0.1746538081E-02      0.6104237130E-02

    ------------------------------------------------
       NWT REQUIRED            3 OUTER ITERATIONS 
       AND A TOTAL OF          5 INNER ITERATIONS.
    ------------------------------------------------

 NO OUTPUT CONTROL FOR STRESS PERIOD   39   TIME STEP   14
 
 SOLVING FOR HEAD 
                                                   Max.-Head-Change                         Max.-Flux-Residual
  Residual-Control   Outer-Iter.   Inner-Iter.     Column Row Layer    Maximum-Head-Change  Column Row Layer    Maximum-Flux-Residual          L2-NORM 
          0                 1           2             3    7     1       0.7983420639E-02       4    7    1         0.2824111977E+00      0.1070353603E+01
          0                 2           2             3    7     1      -0.7694646936E-03       4    5    1        -0.2469408637E-01      0.8957984876E-01
          0                 3           1             3    7     1       0.5266776086E-04       4    5    1         0.1733059054E-02      0.6075658038E-02

    ------------------------------------------------
       NWT REQUIRED            3 OUTER ITERATIONS 
       AND A TOTAL OF          5 INNER ITERATIONS.
    ------------------------------------------------

 NO OUTPUT CONTROL FOR STRESS PERIOD   39   TIME STEP   15
 
 SOLVING FOR HEAD 
                                                   Max.-Head-Change                         Max.-Flux-Residual
  Residual-Control   Outer-Iter.   Inner-Iter.     Column Row Layer    Maximum-Head-Change  Column Row Layer    Maximum-Flux-Residual          L2-NORM 
          0                 1           2             3    7     1       0.7926947841E-02       4    7    1         0.2817050002E+00      0.1065562857E+01
          0                 2           2             3    7     1      -0.7639893992E-03       4    5    1        -0.2450752486E-01      0.8916655690E-01
          0                 3           1             3    7     1       0.5229422251E-04       4    5    1         0.1719988360E-02      0.6047460467E-02

    ------------------------------------------------
       NWT REQUIRED            3 OUTER ITERATIONS 
       AND A TOTAL OF          5 INNER ITERATIONS.
    ------------------------------------------------

 NO OUTPUT CONTROL FOR STRESS PERIOD   39   TIME STEP   16
 
 SOLVING FOR HEAD 
                                                   Max.-Head-Change                         Max.-Flux-Residual
  Residual-Control   Outer-Iter.   Inner-Iter.     Column Row Layer    Maximum-Head-Change  Column Row Layer    Maximum-Flux-Residual          L2-NORM 
          0                 1           2             3    7     1       0.7871259020E-02       4    7    1         0.2810003437E+00      0.1060825611E+01
          0                 2           2             3    7     1      -0.7585904262E-03       4    5    1        -0.2432713783E-01      0.8875857818E-01
          0                 3           1             3    7     1       0.5192587335E-04       4    5    1         0.1707348991E-02      0.6019632703E-02

    ------------------------------------------------
       NWT REQUIRED            3 OUTER ITERATIONS 
       AND A TOTAL OF          5 INNER ITERATIONS.
    ------------------------------------------------

 NO OUTPUT CONTROL FOR STRESS PERIOD   39   TIME STEP   17
 
 SOLVING FOR HEAD 
                                                   Max.-Head-Change                         Max.-Flux-Residual
  Residual-Control   Outer-Iter.   Inner-Iter.     Column Row Layer    Maximum-Head-Change  Column Row Layer    Maximum-Flux-Residual          L2-NORM 
          0                 1           2             3    7     1       0.7816576893E-02       4    7    1         0.2802804290E+00      0.1056144947E+01
          0                 2           2             3    7     1      -0.7532897997E-03       4    5    1        -0.2415174536E-01      0.8835646349E-01
          0                 3           1             3    7     1       0.5156420322E-04       4    5    1         0.1695058538E-02      0.5992228127E-02

    ------------------------------------------------
       NWT REQUIRED            3 OUTER ITERATIONS 
       AND A TOTAL OF          5 INNER ITERATIONS.
    ------------------------------------------------

 NO OUTPUT CONTROL FOR STRESS PERIOD   39   TIME STEP   18
 
 SOLVING FOR HEAD 
                                                   Max.-Head-Change                         Max.-Flux-Residual
  Residual-Control   Outer-Iter.   Inner-Iter.     Column Row Layer    Maximum-Head-Change  Column Row Layer    Maximum-Flux-Residual          L2-NORM 
          0                 1           2             3    7     1       0.7762389327E-02       4    7    1         0.2795446140E+00      0.1051516809E+01
          0                 2           2             3    7     1      -0.7480377099E-03       4    5    1        -0.2398173753E-01      0.8795969531E-01
          0                 3           1             3    7     1       0.5120582060E-04       4    5    1         0.1683144515E-02      0.5965215401E-02

    ------------------------------------------------
       NWT REQUIRED            3 OUTER ITERATIONS 
       AND A TOTAL OF          5 INNER ITERATIONS.
    ------------------------------------------------

 NO OUTPUT CONTROL FOR STRESS PERIOD   39   TIME STEP   19
 
 SOLVING FOR HEAD 
                                                   Max.-Head-Change                         Max.-Flux-Residual
  Residual-Control   Outer-Iter.   Inner-Iter.     Column Row Layer    Maximum-Head-Change  Column Row Layer    Maximum-Flux-Residual          L2-NORM 
          0                 1           2             3    7     1       0.7709170161E-02       4    7    1         0.2788070367E+00      0.1046935736E+01
          0                 2           2             3    7     1      -0.7428799330E-03       4    5    1        -0.2381604242E-01      0.8756823696E-01
          0                 3           1             3    7     1       0.5085385158E-04       4    5    1         0.1671531621E-02      0.5938570488E-02

    ------------------------------------------------
       NWT REQUIRED            3 OUTER ITERATIONS 
       AND A TOTAL OF          5 INNER ITERATIONS.
    ------------------------------------------------

 NO OUTPUT CONTROL FOR STRESS PERIOD   39   TIME STEP   20
 
 SOLVING FOR HEAD 
                                                   Max.-Head-Change                         Max.-Flux-Residual
  Residual-Control   Outer-Iter.   Inner-Iter.     Column Row Layer    Maximum-Head-Change  Column Row Layer    Maximum-Flux-Residual          L2-NORM 
          0                 1           2             3    7     1       0.7656650154E-02       4    7    1         0.2780516563E+00      0.1042402867E+01
          0                 2           2             3    7     1      -0.7377906145E-03       4    5    1        -0.2365507116E-01      0.8718149779E-01
          0                 3           1             3    7     1       0.5050652705E-04       4    5    1         0.1660249006E-02      0.5912269388E-02

    ------------------------------------------------
       NWT REQUIRED            3 OUTER ITERATIONS 
       AND A TOTAL OF          5 INNER ITERATIONS.
    ------------------------------------------------

 NO OUTPUT CONTROL FOR STRESS PERIOD   39   TIME STEP   21
 
 SOLVING FOR HEAD 
                                                   Max.-Head-Change                         Max.-Flux-Residual
  Residual-Control   Outer-Iter.   Inner-Iter.     Column Row Layer    Maximum-Head-Change  Column Row Layer    Maximum-Flux-Residual          L2-NORM 
          0                 1           2             3    7     1       0.7604814159E-02       4    7    1         0.2772932418E+00      0.1037923126E+01
          0                 2           2             3    7     1      -0.7327679448E-03       4    5    1        -0.2349781770E-01      0.8680029649E-01
          0                 3           1             3    7     1       0.5016373564E-04       4    5    1         0.1649226103E-02      0.5886318036E-02

    ------------------------------------------------
       NWT REQUIRED            3 OUTER ITERATIONS 
       AND A TOTAL OF          5 INNER ITERATIONS.
    ------------------------------------------------

 NO OUTPUT CONTROL FOR STRESS PERIOD   39   TIME STEP   22
 
 SOLVING FOR HEAD 
                                                   Max.-Head-Change                         Max.-Flux-Residual
  Residual-Control   Outer-Iter.   Inner-Iter.     Column Row Layer    Maximum-Head-Change  Column Row Layer    Maximum-Flux-Residual          L2-NORM 
          0                 1           2             3    7     1       0.7553639035E-02       4    7    1         0.2765091454E+00      0.1033478225E+01
          0                 2           2             3    7     1      -0.7278101995E-03       4    5    1        -0.2334477363E-01      0.8642326200E-01
          0                 3           1             3    7     1       0.4982534043E-04       4    5    1         0.1638497498E-02      0.5860694128E-02

    ------------------------------------------------
       NWT REQUIRED            3 OUTER ITERATIONS 
       AND A TOTAL OF          5 INNER ITERATIONS.
    ------------------------------------------------

 NO OUTPUT CONTROL FOR STRESS PERIOD   39   TIME STEP   23
 
 SOLVING FOR HEAD 
                                                   Max.-Head-Change                         Max.-Flux-Residual
  Residual-Control   Outer-Iter.   Inner-Iter.     Column Row Layer    Maximum-Head-Change  Column Row Layer    Maximum-Flux-Residual          L2-NORM 
          0                 1           2             3    7     1       0.7503353429E-02       4    7    1         0.2757216893E+00      0.1029090126E+01
          0                 2           2             3    7     1      -0.7229390808E-03       4    5    1        -0.2319568036E-01      0.8605211040E-01
          0                 3           1             3    7     1       0.4949283957E-04       4    5    1         0.1628045101E-02      0.5835503856E-02

    ------------------------------------------------
       NWT REQUIRED            3 OUTER ITERATIONS 
       AND A TOTAL OF          5 INNER ITERATIONS.
    ------------------------------------------------

 NO OUTPUT CONTROL FOR STRESS PERIOD   39   TIME STEP   24
 
 SOLVING FOR HEAD 
                                                   Max.-Head-Change                         Max.-Flux-Residual
  Residual-Control   Outer-Iter.   Inner-Iter.     Column Row Layer    Maximum-Head-Change  Column Row Layer    Maximum-Flux-Residual          L2-NORM 
          0                 1           2             3    7     1       0.7453689525E-02       4    7    1         0.2749159996E+00      0.1024735788E+01
          0                 2           2             3    7     1      -0.7181288904E-03       4    5    1        -0.2304958197E-01      0.8568486890E-01
          0                 3           1             3    7     1       0.4916447055E-04       4    5    1         0.1617802071E-02      0.5810573923E-02

    ------------------------------------------------
       NWT REQUIRED            3 OUTER ITERATIONS 
       AND A TOTAL OF          5 INNER ITERATIONS.
    ------------------------------------------------

 NO OUTPUT CONTROL FOR STRESS PERIOD   39   TIME STEP   25
 
 SOLVING FOR HEAD 
                                                   Max.-Head-Change                         Max.-Flux-Residual
  Residual-Control   Outer-Iter.   Inner-Iter.     Column Row Layer    Maximum-Head-Change  Column Row Layer    Maximum-Flux-Residual          L2-NORM 
          0                 1           2             3    7     1       0.7404630975E-02       4    7    1         0.2740996824E+00      0.1020431053E+01
          0                 2           2             3    7     1      -0.7133778494E-03       4    5    1        -0.2290702859E-01      0.8532268157E-01
          0                 3           1             3    7     1       0.4884011942E-04       4    5    1         0.1607806840E-02      0.5786005315E-02

    ------------------------------------------------
       NWT REQUIRED            3 OUTER ITERATIONS 
       AND A TOTAL OF          5 INNER ITERATIONS.
    ------------------------------------------------

 NO OUTPUT CONTROL FOR STRESS PERIOD   39   TIME STEP   26
 
 SOLVING FOR HEAD 
                                                   Max.-Head-Change                         Max.-Flux-Residual
  Residual-Control   Outer-Iter.   Inner-Iter.     Column Row Layer    Maximum-Head-Change  Column Row Layer    Maximum-Flux-Residual          L2-NORM 
          0                 1           2             3    7     1       0.7356404475E-02       4    7    1         0.2732729539E+00      0.1016417297E+01
          0                 2           2             3    7     1      -0.7087080160E-03       4    5    1        -0.2276708373E-01      0.8501365066E-01
          0                 3           1             3    7     1       0.4852128632E-04       4    5    1         0.1597993884E-02      0.5774402170E-02

    ------------------------------------------------
       NWT REQUIRED            3 OUTER ITERATIONS 
       AND A TOTAL OF          5 INNER ITERATIONS.
    ------------------------------------------------

 NO OUTPUT CONTROL FOR STRESS PERIOD   39   TIME STEP   27
 
 SOLVING FOR HEAD 
                                                   Max.-Head-Change                         Max.-Flux-Residual
  Residual-Control   Outer-Iter.   Inner-Iter.     Column Row Layer    Maximum-Head-Change  Column Row Layer    Maximum-Flux-Residual          L2-NORM 
          0                 1           2             3    7     1       0.7308504919E-02       4    7    1         0.2724357391E+00      0.1012618935E+01
          0                 2           2             3    7     1      -0.7040702290E-03       4    5    1        -0.2263033958E-01      0.8474457484E-01
          0                 3           1             3    7     1       0.4820462719E-04       4    5    1         0.1588404924E-02      0.5771958913E-02

    ------------------------------------------------
       NWT REQUIRED            3 OUTER ITERATIONS 
       AND A TOTAL OF          5 INNER ITERATIONS.
    ------------------------------------------------

 NO OUTPUT CONTROL FOR STRESS PERIOD   39   TIME STEP   28
 
 SOLVING FOR HEAD 
                                                   Max.-Head-Change                         Max.-Flux-Residual
  Residual-Control   Outer-Iter.   Inner-Iter.     Column Row Layer    Maximum-Head-Change  Column Row Layer    Maximum-Flux-Residual          L2-NORM 
          0                 1           2             3    7     1       0.7261405757E-02       4    7    1         0.2715812566E+00      0.1008258291E+01
          0                 2           2             3    7     1      -0.6995107191E-03       4    5    1        -0.2249589300E-01      0.8436210916E-01
          0                 3           1             3    7     1       0.4789328385E-04       4    5    1         0.1578976514E-02      0.5740071889E-02

    ------------------------------------------------
       NWT REQUIRED            3 OUTER ITERATIONS 
       AND A TOTAL OF          5 INNER ITERATIONS.
    ------------------------------------------------

 NO OUTPUT CONTROL FOR STRESS PERIOD   39   TIME STEP   29
 
 SOLVING FOR HEAD 
                                                   Max.-Head-Change                         Max.-Flux-Residual
  Residual-Control   Outer-Iter.   Inner-Iter.     Column Row Layer    Maximum-Head-Change  Column Row Layer    Maximum-Flux-Residual          L2-NORM 
          0                 1           2             3    7     1       0.7215086951E-02       4    7    1         0.2707173293E+00      0.1067874248E+01
          0                 2           2             3    7     1      -0.6950270928E-03       3   13    1         0.2578521626E-01      0.9291200875E-01
          0                 3           1             3   13     1       0.5701060134E-04       3   13    1         0.3258552973E-02      0.6892214859E-02

    ------------------------------------------------
       NWT REQUIRED            3 OUTER ITERATIONS 
       AND A TOTAL OF          5 INNER ITERATIONS.
    ------------------------------------------------

 NO OUTPUT CONTROL FOR STRESS PERIOD   39   TIME STEP   30



 STREAM LISTING     PERIOD     39   STEP       30

 LAYER ROW COL. STREAM  RCH.  FLOW INTO     FLOW TO   FLOW OUT OF   OVRLND.     DIRECT     STREAM       STREAM     STREAM     STREAM   STREAMBED  STREAMBED
                SEG.NO.  NO.  STRM. RCH.    AQUIFER    STRM. RCH.    RUNOFF     PRECIP       ET          HEAD       DEPTH      WIDTH   CONDCTNC.   GRADIENT

   1    1    1     1     1    1.6375E+01  1.9673E-01   1.6178E+01  0.000E+00  0.000E+00  0.000E+00  1.09408E+03  1.036E+00  1.083E+01  4.874E-02  1.345E+00
   1    2    2     1     2    1.6178E+01  3.0333E-01   1.5875E+01  0.000E+00  0.000E+00  0.000E+00  1.08909E+03  1.032E+00  1.075E+01  7.524E-02  1.344E+00
   1    3    3     1     3    1.5875E+01  2.5739E-01   1.5618E+01  0.000E+00  0.000E+00  0.000E+00  1.08345E+03  1.026E+00  1.065E+01  6.392E-02  1.342E+00
   1    3    4     1     4    1.5618E+01  2.3595E-01   1.5382E+01  0.000E+00  0.000E+00  0.000E+00  1.07843E+03  1.022E+00  1.057E+01  5.867E-02  1.341E+00
   1    4    5     2     1    1.3382E+01  2.9830E-01   1.3084E+01  0.000E+00  0.000E+00  0.000E+00  1.07276E+03  8.244E-01  1.200E+01  7.800E-02  1.275E+00
   1    5    6     2     2    1.3084E+01  2.2887E-01   1.2855E+01  0.000E+00  0.000E+00  0.000E+00  1.06732E+03  8.145E-01  1.200E+01  6.000E-02  1.271E+00
   1    6    6     2     3    1.2855E+01  2.2835E-01   1.2626E+01  0.000E+00  0.000E+00  0.000E+00  1.06260E+03  8.059E-01  1.200E+01  6.000E-02  1.269E+00
   1    7    6     2     4    1.2626E+01  2.2783E-01   1.2398E+01  0.000E+00  0.000E+00  0.000E+00  1.05787E+03  7.972E-01  1.200E+01  6.000E-02  1.266E+00
   1    8    6     2     5    1.2398E+01  2.2731E-01   1.2171E+01  0.000E+00  0.000E+00  0.000E+00  1.05315E+03  7.884E-01  1.200E+01  6.000E-02  1.263E+00
   1    3    5     3     1    2.0000E+00  2.8252E-01   1.7175E+00  0.000E+00  0.000E+00  0.000E+00  1.07555E+03  1.909E+00  9.636E+00  7.227E-02  1.955E+00
   1    3    6     3     2    1.7175E+00  2.4905E-01   1.4684E+00  0.000E+00  0.000E+00  0.000E+00  1.07264E+03  1.727E+00  8.909E+00  6.682E-02  1.864E+00
   1    3    7     3     3    1.4684E+00  1.9718E-01   1.2712E+00  0.000E+00  0.000E+00  0.000E+00  1.06987E+03  1.555E+00  8.218E+00  5.547E-02  1.777E+00
   1    4    8     3     4    1.2712E+00  2.2567E-01   1.0456E+00  0.000E+00  0.000E+00  0.000E+00  1.06682E+03  1.364E+00  7.455E+00  6.709E-02  1.682E+00
   1    5    8     3     5    1.0456E+00  1.5790E-01   8.8768E-01  0.000E+00  0.000E+00  0.000E+00  1.06362E+03  1.164E+00  6.655E+00  4.991E-02  1.582E+00
   1    6    8     3     6    8.8768E-01  5.5980E-02   8.3170E-01  0.000E+00  0.000E+00  0.000E+00  1.06158E+03  1.036E+00  6.145E+00  1.844E-02  1.518E+00
   1    5   10     4     1    1.0000E+01  9.0919E-02   9.9091E+00  0.000E+00  0.000E+00  0.000E+00  1.07836E+03  6.368E-01  1.000E+01  2.500E-02  1.212E+00
   1    5    9     4     2    9.9091E+00  1.8158E-01   9.7275E+00  0.000E+00  0.000E+00  0.000E+00  1.07154E+03  6.315E-01  1.000E+01  5.000E-02  1.211E+00
   1    6    8     4     3    9.7275E+00  1.2689E-01   9.6006E+00  0.000E+00  0.000E+00  0.000E+00  1.06381E+03  6.256E-01  1.000E+01  3.500E-02  1.209E+00
   1    6    8     5     1    1.0432E+01  2.2686E-01   1.0205E+01  0.000E+00  0.000E+00  0.000E+00  1.05868E+03  6.790E-01  1.542E+01  6.166E-02  1.226E+00
   1    7    7     5     2    1.0205E+01  2.7894E-01   9.9265E+00  0.000E+00  0.000E+00  0.000E+00  1.05417E+03  6.732E-01  1.519E+01  7.594E-02  1.224E+00
   1    8    7     5     3    9.9265E+00  1.9221E-01   9.7343E+00  0.000E+00  0.000E+00  0.000E+00  1.04992E+03  6.676E-01  1.497E+01  5.241E-02  1.223E+00
   1    8    6     5     4    9.7343E+00  1.3577E-01   9.5985E+00  0.000E+00  0.000E+00  0.000E+00  1.04691E+03  6.637E-01  1.482E+01  3.706E-02  1.221E+00
   1    9    6     6     1    2.1770E+01  2.4720E-01   2.1522E+01  0.000E+00  0.000E+00  0.000E+00  1.04385E+03  1.120E+00  1.200E+01  6.000E-02  1.373E+00
   1   10    7     6     2    2.1522E+01  2.4674E-01   2.1276E+01  0.000E+00  0.000E+00  0.000E+00  1.03929E+03  1.112E+00  1.200E+01  6.000E-02  1.371E+00
   1   11    7     6     3    2.1276E+01  2.4627E-01   2.1029E+01  0.000E+00  0.000E+00  0.000E+00  1.03474E+03  1.105E+00  1.200E+01  6.000E-02  1.368E+00
   1   12    7     6     4    2.1029E+01  2.4581E-01   2.0784E+01  0.000E+00  0.000E+00  0.000E+00  1.03019E+03  1.097E+00  1.200E+01  6.000E-02  1.366E+00
   1   13    7     6     5    2.0784E+01  1.1616E-02   2.0772E+01  0.000E+00  0.000E+00  0.000E+00  1.02700E+03  1.093E+00  1.200E+01  2.400E-02  1.613E-01
   1   14    9     7     1    1.5000E+02  1.3939E+00   1.4861E+02  0.000E+00  0.000E+00  0.000E+00  1.03987E+03  2.288E+00  5.529E+01  5.593E-01  8.308E-01
   1   13    8     7     2    1.4861E+02  2.0146E+00   1.4659E+02  0.000E+00  0.000E+00  0.000E+00  1.03478E+03  2.279E+00  5.525E+01  6.147E-01  1.092E+00
   1   13    7     7     3    1.4659E+02  1.7699E+00   1.4482E+02  0.000E+00  0.000E+00  0.000E+00  1.02969E+03  2.268E+00  5.521E+01  5.583E-01  1.057E+00
   1   13    6     8     1    1.6559E+02  1.1887E+00   1.6440E+02  0.000E+00  0.000E+00  0.000E+00  1.02479E+03  2.919E+00  4.233E+01  4.314E-01  9.186E-01
   1   13    5     8     2    1.6440E+02  4.2134E-01   1.6398E+02  0.000E+00  0.000E+00  0.000E+00  1.01854E+03  2.914E+00  4.225E+01  4.306E-01  3.262E-01
   1   13    4     8     3    1.6398E+02 -1.5061E+00   1.6549E+02  0.000E+00  0.000E+00  0.000E+00  1.01229E+03  2.918E+00  4.231E+01  4.311E+00 -1.165E-01
   1   13    3     8     4    1.6549E+02 -3.1345E+00   1.6862E+02  0.000E+00  0.000E+00  0.000E+00  1.00606E+03  2.933E+00  4.253E+01  4.334E+00 -2.411E-01
   1   13    2     8     5    1.6862E+02 -2.3224E+00   1.7095E+02  0.000E+00  0.000E+00  0.000E+00  9.99826E+02  2.951E+00  4.279E+01  4.360E+00 -1.775E-01
   1   13    1     8     6    1.7095E+02 -1.8648E+00   1.7281E+02  0.000E+00  0.000E+00  0.000E+00  9.94839E+02  2.964E+00  4.298E+01  2.628E+00 -2.365E-01
   1    8    6     9     1    0.0000E+00  0.0000E+00   0.0000E+00  0.000E+00  0.000E+00  0.000E+00  1.07875E+03  0.000E+00  4.000E+00  0.000E+00  1.000E+00
   1    8    5     9     2    0.0000E+00  0.0000E+00   0.0000E+00  0.000E+00  0.000E+00  0.000E+00  1.07825E+03  0.000E+00  4.000E+00  0.000E+00  1.000E+00





UNSATURATED ZONE PACKAGE VOLUMETRIC BUDGET FOR  TIME STEP    30 STRESS PERIOD   39
  ------------------------------------------------------------------------------



     CUMULATIVE VOLUMES      L**3       RATES FOR THIS TIME STEP      L**3/T
     ------------------                 ------------------------

           IN:                                      IN:
           ---                                      ---
        INFILTRATION =  1882882455.0969          INFILTRATION =           4.4075

          OUT:                                     OUT:
          ----                                     ----
              UZF ET =  1497232196.6348                UZF ET =           0.7250
        UZF RECHARGE =    63332171.6686          UZF RECHARGE =           0.3109

            IN - OUT =   322318086.7935              IN - OUT =           3.3716

          STORAGE:                                 STORAGE:
          --------                                 --------
      STORAGE CHANGE =   322318056.2528        STORAGE CHANGE =           3.3716

 PERCENT DISCREPANCY IS DIFFERENCE BETWEEN IN-OUT MINUS CHANGE IN STORAGE
 DIVIDED BY THE AVERAGE OF IN AND OUT TIMES 100

 PERCENT DISCREPANCY =           0.00     PERCENT DISCREPANCY =           0.00






1
  VOLUMETRIC BUDGET FOR AGRICULTURAL FIELDS AT  END OF TIME STEP   30, STRESS PERIOD  39
  ------------------------------------------------------------------------------

     CUMULATIVE VOLUMES      L**3       RATES FOR THIS TIME STEP      L**3/T
     ------------------                 ------------------------

           IN:                                      IN:
           ---                                      ---
               AG WELLS  =   871999872.0000                 AG WELLS  =           0.0000
      DIVERSION SEGMENTS =   570691712.0000        DIVERSION SEGMENTS =           0.0000
           GW IRRIGATION =           0.0000             GW IRRIGATION =           0.0000
           SW IRRIGATION =           0.0000             SW IRRIGATION =           0.0000
        SYSTEM LOSSES GW =           0.0000          SYSTEM LOSSES GW =           0.0000
        SYSTEM LOSSES SW =           0.0000          SYSTEM LOSSES SW =           0.0000

                TOTAL IN =  1442691584.0000                  TOTAL IN =           0.0000

          OUT:                                     OUT:
          ----                                     ----
               AG WELLS  =           0.0000                 AG WELLS  =           0.0000
      DIVERSION SEGMENTS =           0.0000        DIVERSION SEGMENTS =           0.0000
           GW IRRIGATION =   871999872.0000             GW IRRIGATION =           0.0000
           SW IRRIGATION =   570702976.0000             SW IRRIGATION =           0.0000
        SYSTEM LOSSES GW =           0.0000          SYSTEM LOSSES GW =           0.0000
        SYSTEM LOSSES SW =           0.0000          SYSTEM LOSSES SW =           0.0000

               TOTAL OUT =  1442702848.0000                 TOTAL OUT =           0.0000

                IN - OUT =      -11264.0000                  IN - OUT =           0.0000

     PERCENT DISCREPANCY =          -0.00         PERCENT DISCREPANCY =           0.00



1
  VOLUMETRIC BUDGET FOR ENTIRE MODEL AT END OF TIME STEP   30, STRESS PERIOD  39
  ------------------------------------------------------------------------------

     CUMULATIVE VOLUMES      L**3       RATES FOR THIS TIME STEP      L**3/T
     ------------------                 ------------------------

           IN:                                      IN:
           ---                                      ---
             STORAGE     =  1318191360.0000               STORAGE     =           2.1115
       CONSTANT HEAD     =           0.0000         CONSTANT HEAD     =           0.0000
     HEAD DEP BOUNDS     =    28855478.0000       HEAD DEP BOUNDS     =           0.2897
      STREAM LEAKAGE     =  1187617152.0000        STREAM LEAKAGE     =          12.3916
        UZF RECHARGE     =    63332176.0000          UZF RECHARGE     =           0.3109
               GW ET     =           0.0000                 GW ET     =           0.0000
     SURFACE LEAKAGE     =           0.0000       SURFACE LEAKAGE     =           0.0000
           AG WELLS      =           0.0000             AG WELLS      =           0.0000

                TOTAL IN =  2597996032.0000                  TOTAL IN =          15.1036

          OUT:                                     OUT:
          ----                                     ----
             STORAGE     =   700615680.0000               STORAGE     =           5.9890
       CONSTANT HEAD     =           0.0000         CONSTANT HEAD     =           0.0000
     HEAD DEP BOUNDS     =    28784992.0000       HEAD DEP BOUNDS     =           0.2869
      STREAM LEAKAGE     =   996601216.0000        STREAM LEAKAGE     =           8.8278
        UZF RECHARGE     =           0.0000          UZF RECHARGE     =           0.0000
               GW ET     =           0.0000                 GW ET     =           0.0000
     SURFACE LEAKAGE     =           0.0000       SURFACE LEAKAGE     =           0.0000
           AG WELLS      =   871999872.0000             AG WELLS      =           0.0000

               TOTAL OUT =  2598001664.0000                 TOTAL OUT =          15.1037

                IN - OUT =       -5632.0000                  IN - OUT =      -4.1962E-05

     PERCENT DISCREPANCY =          -0.00         PERCENT DISCREPANCY =          -0.00






         TIME SUMMARY AT END OF TIME STEP   30 IN STRESS PERIOD   39
                    SECONDS     MINUTES      HOURS       DAYS        YEARS
                    -----------------------------------------------------------
   TIME STEP LENGTH  87667.      1461.1      24.352      1.0147     2.77799E-03
 STRESS PERIOD TIME 2.63000E+06  43833.      730.56      30.440     8.33397E-02
         TOTAL TIME 1.00026E+08 1.66710E+06  27785.      1157.7      3.1696    
1
1
                            STRESS PERIOD NO.   40, LENGTH =   2630000.    
                            -----------------------------------------------

                              NUMBER OF TIME STEPS =    30

                               MULTIPLIER FOR DELT =     1.000

                            INITIAL TIME STEP SIZE =   87666.66    

 REUSING NON-PARAMETER GHB CELLS FROM LAST STRESS PERIOD

      2 GHB CELLS

 REUSING STREAM SEGMENT DATA FROM LAST STRESS PERIOD



            AREAL INFILTRATION RATE
 READING ON UNIT   19 WITH FORMAT: (10F4.0)            

            1           2           3           4           5           6           7           8           9          10
 ........................................................................................................................
   1   1.2000E-09   0.000       0.000       0.000       0.000       0.000       0.000       0.000       0.000       0.000    
   2   2.1000E-09  2.0000E-09  8.0000E-10  8.5000E-09   0.000       0.000       0.000       0.000       0.000       0.000    
   3   5.0000E-10  1.1000E-09  8.8000E-09  5.5000E-09   0.000       0.000       0.000       0.000       0.000       0.000    
   4   8.5000E-09  1.1000E-09  1.1000E-09  1.1000E-09  2.0000E-09   0.000       0.000       0.000       0.000       0.000    
   5   8.5000E-09  1.1000E-09  1.1000E-09  1.1000E-09  1.1000E-09   0.000       0.000       0.000       0.000       0.000    
   6   8.5000E-09  5.2000E-09  2.1000E-09  1.1000E-09  1.5000E-09   0.000       0.000       0.000       0.000       0.000    
   7   8.5000E-09  5.2000E-09  2.1000E-09  1.2000E-09  2.0000E-09   0.000       0.000       0.000       0.000       0.000    
   8   5.0000E-10  5.2000E-09  2.1000E-09  1.2000E-09  5.0000E-09   0.000       0.000       0.000       0.000       0.000    
   9   5.0000E-10  5.2000E-09  2.1000E-09  1.2000E-09  5.0000E-09   0.000       0.000       0.000       0.000       0.000    
  10   5.0000E-10  5.2000E-09  2.1000E-09  1.2000E-09  5.8000E-09   0.000       0.000       0.000       0.000       0.000    
  11   1.0000E-10  1.1000E-09  1.1000E-09  1.2000E-09  5.0000E-09   0.000       0.000       0.000       0.000       0.000    
  12   1.1000E-09  1.1000E-09  1.1000E-09  1.1000E-09  2.0000E-09   0.000       0.000       0.000       0.000       0.000    
  13   1.1000E-09  2.2000E-09  2.2000E-09  2.1000E-09  1.0000E-09   0.000       0.000       0.000       0.000       0.000    
  14   2.0000E-10  5.5000E-09  5.5000E-09  5.2000E-09  1.0000E-09   0.000       0.000       0.000       0.000       0.000    
  15    0.000      8.8000E-09  8.8000E-09   0.000       0.000       0.000       0.000       0.000       0.000       0.000    

                  ET RATE =  5.000000E-10

 USING ET EXTINCTION DEPTH FROM PREVIOUS STRESS PERIOD. CURRENT PERIOD IS:      40

 USING EXTINCTION WATER CONTENT FROM PREVIOUS STRESS PERIOD. CURRENT PERIOD IS:      40

 USING AIR ENTRY PRESSURE FROM PREVIOUS STRESS PERIOD. CURRENT PERIOD IS:      40

 USING ROOT PRESSURE HEAD FROM PREVIOUS STRESS PERIOD. CURRENT PERIOD IS:      40

 USING ROOT ACTIVITY FROM PREVIOUS STRESS PERIOD. CURRENT PERIOD IS:      40

 PROCESSING AG STRESS PERIOD DATA

 READING AG STRESS PERIOD DATA

 READING IRRIGATION SEGMENT

 READING IRRIGATION WELL

 READING SUPPLEMENTAL WELL

 END PROCESSING AG STRESS PERIOD DATA OPTIONS
 
 SOLVING FOR HEAD 
                                                   Max.-Head-Change                         Max.-Flux-Residual
  Residual-Control   Outer-Iter.   Inner-Iter.     Column Row Layer    Maximum-Head-Change  Column Row Layer    Maximum-Flux-Residual          L2-NORM 
          0                 1           2             4   13     1       0.1154436700E-01       4   13    1         0.6630425690E+00      0.1562612912E+01
          0                 2           2             3   13     1       0.1340547322E-02       3   13    1         0.7843660253E-01      0.1538238819E+00
          0                 3           2             3   13     1       0.1708459213E-03       3   13    1         0.9779610438E-02      0.1336575029E-01
          0                 4           1             3   13     1       0.2214990340E-04       3   13    1         0.1280545235E-02      0.1327479232E-02

    ------------------------------------------------
       NWT REQUIRED            4 OUTER ITERATIONS 
       AND A TOTAL OF          7 INNER ITERATIONS.
    ------------------------------------------------

 NO OUTPUT CONTROL FOR STRESS PERIOD   40   TIME STEP    1
 
 SOLVING FOR HEAD 
                                                   Max.-Head-Change                         Max.-Flux-Residual
  Residual-Control   Outer-Iter.   Inner-Iter.     Column Row Layer    Maximum-Head-Change  Column Row Layer    Maximum-Flux-Residual          L2-NORM 
          0                 1           2             4   13     1       0.1047494113E-01       4   13    1         0.6014502097E+00      0.1492397528E+01
          0                 2           2             3   13     1       0.1200985236E-02       3   13    1         0.7030043624E-01      0.1452044173E+00
          0                 3           2             3   13     1       0.1534678955E-03       3   13    1         0.8783143931E-02      0.1239001354E-01
          0                 4           1             3   13     1       0.1995824398E-04       3   13    1         0.1153925681E-02      0.1202273325E-02

    ------------------------------------------------
       NWT REQUIRED            4 OUTER ITERATIONS 
       AND A TOTAL OF          7 INNER ITERATIONS.
    ------------------------------------------------

 NO OUTPUT CONTROL FOR STRESS PERIOD   40   TIME STEP    2
 
 SOLVING FOR HEAD 
                                                   Max.-Head-Change                         Max.-Flux-Residual
  Residual-Control   Outer-Iter.   Inner-Iter.     Column Row Layer    Maximum-Head-Change  Column Row Layer    Maximum-Flux-Residual          L2-NORM 
          0                 1           2             4   13     1       0.9507383439E-02       4   13    1         0.5457240700E+00      0.1431174604E+01
          0                 2           2             3   13     1       0.1072828415E-02       3   13    1         0.6282897469E-01      0.1375677402E+00
          0                 3           2             3   13     1       0.1366814062E-03       3   13    1         0.7820584363E-02      0.1148493359E-01
          0                 4           1             3   13     1       0.1770583484E-04       3   13    1         0.1023807054E-02      0.1074678505E-02

    ------------------------------------------------
       NWT REQUIRED            4 OUTER ITERATIONS 
       AND A TOTAL OF          7 INNER ITERATIONS.
    ------------------------------------------------

 NO OUTPUT CONTROL FOR STRESS PERIOD   40   TIME STEP    3
 
 SOLVING FOR HEAD 
                                                   Max.-Head-Change                         Max.-Flux-Residual
  Residual-Control   Outer-Iter.   Inner-Iter.     Column Row Layer    Maximum-Head-Change  Column Row Layer    Maximum-Flux-Residual          L2-NORM 
          0                 1           2             4   13     1       0.8631843293E-02       4   13    1         0.4952971214E+00      0.1377828590E+01
          0                 2           2             3   13     1       0.9599540118E-03       3   13    1         0.5624540657E-01      0.1309430625E+00
          0                 3           2             3   13     1       0.1226224683E-03       3   13    1         0.7014413914E-02      0.1072970802E-01
          0                 4           1             3   13     1       0.1594571552E-04       3   13    1         0.9221368882E-03      0.9750860240E-03

    ------------------------------------------------
       NWT REQUIRED            4 OUTER ITERATIONS 
       AND A TOTAL OF          7 INNER ITERATIONS.
    ------------------------------------------------

 NO OUTPUT CONTROL FOR STRESS PERIOD   40   TIME STEP    4
 
 SOLVING FOR HEAD 
                                                   Max.-Head-Change                         Max.-Flux-Residual
  Residual-Control   Outer-Iter.   Inner-Iter.     Column Row Layer    Maximum-Head-Change  Column Row Layer    Maximum-Flux-Residual          L2-NORM 
          0                 1           2             4   13     1       0.7839708884E-02       4   13    1         0.4496745922E+00      0.1331358525E+01
          0                 2           2             3   13     1       0.8645025141E-03       3   13    1         0.5051993132E-01      0.1206456159E+00
          0                 3           1             3   13     1       0.1097608891E-03       3   13    1         0.6350227820E-02      0.1054325656E-01
          0                 4           1             3   13     1       0.1391127602E-04       3   13    1         0.8097026239E-03      0.1062032384E-02

    ------------------------------------------------
       NWT REQUIRED            4 OUTER ITERATIONS 
       AND A TOTAL OF          6 INNER ITERATIONS.
    ------------------------------------------------

 NO OUTPUT CONTROL FOR STRESS PERIOD   40   TIME STEP    5
 
 SOLVING FOR HEAD 
                                                   Max.-Head-Change                         Max.-Flux-Residual
  Residual-Control   Outer-Iter.   Inner-Iter.     Column Row Layer    Maximum-Head-Change  Column Row Layer    Maximum-Flux-Residual          L2-NORM 
          0                 1           2             4   13     1       0.7797964406E-02       4   13    1         0.4475556181E+00      0.1303814998E+01
          0                 2           2             4   13     1       0.9972013124E-03       4   13    1         0.5757189729E-01      0.1270194676E+00
          0                 3           1             4   13     1       0.1275615243E-03       4   13    1         0.7330180433E-02      0.1189710257E-01
          0                 4           1             4   13     1       0.1633715206E-04       4   13    1         0.9402817241E-03      0.1270244379E-02

    ------------------------------------------------
       NWT REQUIRED            4 OUTER ITERATIONS 
       AND A TOTAL OF          6 INNER ITERATIONS.
    ------------------------------------------------

 NO OUTPUT CONTROL FOR STRESS PERIOD   40   TIME STEP    6
 
 SOLVING FOR HEAD 
                                                   Max.-Head-Change                         Max.-Flux-Residual
  Residual-Control   Outer-Iter.   Inner-Iter.     Column Row Layer    Maximum-Head-Change  Column Row Layer    Maximum-Flux-Residual          L2-NORM 
          0                 1           2             3    7     1       0.6906032736E-02       4   13    1         0.3939884343E+00      0.1263204241E+01
          0                 2           2             4   13     1       0.8796758543E-03       4   13    1         0.5080839949E-01      0.1211404062E+00
          0                 3           1             4   13     1       0.1122058992E-03       4   13    1         0.6444574571E-02      0.1098037113E-01
          0                 4           1             4   13     1       0.1434008903E-04       4   13    1         0.8252572607E-03      0.1133134548E-02

    ------------------------------------------------
       NWT REQUIRED            4 OUTER ITERATIONS 
       AND A TOTAL OF          6 INNER ITERATIONS.
    ------------------------------------------------

 NO OUTPUT CONTROL FOR STRESS PERIOD   40   TIME STEP    7
 
 SOLVING FOR HEAD 
                                                   Max.-Head-Change                         Max.-Flux-Residual
  Residual-Control   Outer-Iter.   Inner-Iter.     Column Row Layer    Maximum-Head-Change  Column Row Layer    Maximum-Flux-Residual          L2-NORM 
          0                 1           2             3    7     1       0.6864078395E-02       2   13    1         0.3489532583E+00      0.1228605934E+01
          0                 2           2             4   13     1       0.7739738258E-03       4   13    1         0.4472296969E-01      0.1161162657E+00
          0                 3           1             4   13     1       0.9876577077E-04       4   13    1         0.5669364074E-02      0.1020946953E-01

    ------------------------------------------------
       NWT REQUIRED            3 OUTER ITERATIONS 
       AND A TOTAL OF          5 INNER ITERATIONS.
    ------------------------------------------------

 NO OUTPUT CONTROL FOR STRESS PERIOD   40   TIME STEP    8
 
 SOLVING FOR HEAD 
                                                   Max.-Head-Change                         Max.-Flux-Residual
  Residual-Control   Outer-Iter.   Inner-Iter.     Column Row Layer    Maximum-Head-Change  Column Row Layer    Maximum-Flux-Residual          L2-NORM 
          0                 1           2             3    7     1       0.6822512504E-02       2   13    1         0.3233123175E+00      0.1199053848E+01
          0                 2           2             4   13     1       0.6853385000E-03       4   13    1         0.3962225643E-01      0.1119143063E+00
          0                 3           1             4   13     1       0.8772306895E-04       4   13    1         0.5033055740E-02      0.9564483240E-02

    ------------------------------------------------
       NWT REQUIRED            3 OUTER ITERATIONS 
       AND A TOTAL OF          5 INNER ITERATIONS.
    ------------------------------------------------

 NO OUTPUT CONTROL FOR STRESS PERIOD   40   TIME STEP    9
 
 SOLVING FOR HEAD 
                                                   Max.-Head-Change                         Max.-Flux-Residual
  Residual-Control   Outer-Iter.   Inner-Iter.     Column Row Layer    Maximum-Head-Change  Column Row Layer    Maximum-Flux-Residual          L2-NORM 
          0                 1           2             3    7     1       0.6781606962E-02       2   13    1         0.2994928625E+00      0.1173673627E+01
          0                 2           2             3    7     1      -0.6530765671E-03       4   13    1         0.3509501225E-01      0.1082982443E+00
          0                 3           1             4   13     1       0.7766819382E-04       4   13    1         0.4453856121E-02      0.8993234810E-02

    ------------------------------------------------
       NWT REQUIRED            3 OUTER ITERATIONS 
       AND A TOTAL OF          5 INNER ITERATIONS.
    ------------------------------------------------

 NO OUTPUT CONTROL FOR STRESS PERIOD   40   TIME STEP   10
 
 SOLVING FOR HEAD 
                                                   Max.-Head-Change                         Max.-Flux-Residual
  Residual-Control   Outer-Iter.   Inner-Iter.     Column Row Layer    Maximum-Head-Change  Column Row Layer    Maximum-Flux-Residual          L2-NORM 
          0                 1           2             3    7     1       0.6741104979E-02       2   13    1         0.2773786080E+00      0.1151769023E+01
          0                 2           2             3    7     1      -0.6491582593E-03       4   13    1         0.3108717948E-01      0.1051973127E+00
          0                 3           1             4   13     1       0.6856615586E-04       4   13    1         0.3929474932E-02      0.8504581588E-02

    ------------------------------------------------
       NWT REQUIRED            3 OUTER ITERATIONS 
       AND A TOTAL OF          5 INNER ITERATIONS.
    ------------------------------------------------

 NO OUTPUT CONTROL FOR STRESS PERIOD   40   TIME STEP   11
 
 SOLVING FOR HEAD 
                                                   Max.-Head-Change                         Max.-Flux-Residual
  Residual-Control   Outer-Iter.   Inner-Iter.     Column Row Layer    Maximum-Head-Change  Column Row Layer    Maximum-Flux-Residual          L2-NORM 
          0                 1           2             3    7     1       0.6700996186E-02       4    7    1         0.2604088004E+00      0.1132763440E+01
          0                 2           2             3    7     1      -0.6452783288E-03       4   13    1         0.2752594715E-01      0.1025451628E+00
          0                 3           1             4   13     1       0.6066834767E-04       4   13    1         0.3474602741E-02      0.8093725641E-02

    ------------------------------------------------
       NWT REQUIRED            3 OUTER ITERATIONS 
       AND A TOTAL OF          5 INNER ITERATIONS.
    ------------------------------------------------

 NO OUTPUT CONTROL FOR STRESS PERIOD   40   TIME STEP   12
 
 SOLVING FOR HEAD 
                                                   Max.-Head-Change                         Max.-Flux-Residual
  Residual-Control   Outer-Iter.   Inner-Iter.     Column Row Layer    Maximum-Head-Change  Column Row Layer    Maximum-Flux-Residual          L2-NORM 
          0                 1           2             3    7     1       0.6661515152E-02       4    7    1         0.2595525995E+00      0.1116169784E+01
          0                 2           2             3    7     1      -0.6414594194E-03       4   13    1         0.2445156599E-01      0.1002832000E+00
          0                 3           1             4   13     1       0.5409411800E-04       4   13    1         0.3096150180E-02      0.7757593019E-02

    ------------------------------------------------
       NWT REQUIRED            3 OUTER ITERATIONS 
       AND A TOTAL OF          5 INNER ITERATIONS.
    ------------------------------------------------

 NO OUTPUT CONTROL FOR STRESS PERIOD   40   TIME STEP   13
 
 SOLVING FOR HEAD 
                                                   Max.-Head-Change                         Max.-Flux-Residual
  Residual-Control   Outer-Iter.   Inner-Iter.     Column Row Layer    Maximum-Head-Change  Column Row Layer    Maximum-Flux-Residual          L2-NORM 
          0                 1           2             3    7     1       0.6622649355E-02       4    7    1         0.2586982693E+00      0.1101592493E+01
          0                 2           2             3    7     1      -0.6377003180E-03       6    7    1        -0.2419189384E-01      0.9836281095E-01
          0                 3           1             4   13     1       0.4820543331E-04       4   13    1         0.2757177345E-02      0.7471243000E-02

    ------------------------------------------------
       NWT REQUIRED            3 OUTER ITERATIONS 
       AND A TOTAL OF          5 INNER ITERATIONS.
    ------------------------------------------------

 NO OUTPUT CONTROL FOR STRESS PERIOD   40   TIME STEP   14
 
 SOLVING FOR HEAD 
                                                   Max.-Head-Change                         Max.-Flux-Residual
  Residual-Control   Outer-Iter.   Inner-Iter.     Column Row Layer    Maximum-Head-Change  Column Row Layer    Maximum-Flux-Residual          L2-NORM 
          0                 1           2             3    7     1       0.6583898218E-02       4    7    1         0.2578456442E+00      0.1088698473E+01
          0                 2           2             3    7     1      -0.6339523352E-03       6    7    1        -0.2401789774E-01      0.9667459440E-01
          0                 3           1             3    7     1       0.4341600304E-04       4   13    1         0.2455270255E-02      0.7221164624E-02

    ------------------------------------------------
       NWT REQUIRED            3 OUTER ITERATIONS 
       AND A TOTAL OF          5 INNER ITERATIONS.
    ------------------------------------------------

 NO OUTPUT CONTROL FOR STRESS PERIOD   40   TIME STEP   15
 
 SOLVING FOR HEAD 
                                                   Max.-Head-Change                         Max.-Flux-Residual
  Residual-Control   Outer-Iter.   Inner-Iter.     Column Row Layer    Maximum-Head-Change  Column Row Layer    Maximum-Flux-Residual          L2-NORM 
          0                 1           2             3    7     1       0.6545988416E-02       4    7    1         0.2569945734E+00      0.1077216852E+01
          0                 2           2             3    7     1      -0.6302861528E-03       6    7    1        -0.2384771042E-01      0.9519661064E-01
          0                 3           1             3    7     1       0.4316554130E-04       4   13    1         0.2190314903E-02      0.7010675650E-02

    ------------------------------------------------
       NWT REQUIRED            3 OUTER ITERATIONS 
       AND A TOTAL OF          5 INNER ITERATIONS.
    ------------------------------------------------

 NO OUTPUT CONTROL FOR STRESS PERIOD   40   TIME STEP   16
 
 SOLVING FOR HEAD 
                                                   Max.-Head-Change                         Max.-Flux-Residual
  Residual-Control   Outer-Iter.   Inner-Iter.     Column Row Layer    Maximum-Head-Change  Column Row Layer    Maximum-Flux-Residual          L2-NORM 
          0                 1           2             3    7     1       0.6508171896E-02       4    7    1         0.2561376882E+00      0.1066893011E+01
          0                 2           2             3    7     1      -0.6266291787E-03       6    7    1        -0.2368191181E-01      0.9390162512E-01
          0                 3           1             3    7     1       0.4291570047E-04       4   13    1         0.1955500643E-02      0.6830593415E-02

    ------------------------------------------------
       NWT REQUIRED            3 OUTER ITERATIONS 
       AND A TOTAL OF          5 INNER ITERATIONS.
    ------------------------------------------------

 NO OUTPUT CONTROL FOR STRESS PERIOD   40   TIME STEP   17
 
 SOLVING FOR HEAD 
                                                   Max.-Head-Change                         Max.-Flux-Residual
  Residual-Control   Outer-Iter.   Inner-Iter.     Column Row Layer    Maximum-Head-Change  Column Row Layer    Maximum-Flux-Residual          L2-NORM 
          0                 1           2             3    7     1       0.6470932891E-02       4    7    1         0.2552826237E+00      0.1057567673E+01
          0                 2           2             3    7     1      -0.6230283482E-03       6    7    1        -0.2352033291E-01      0.9275666899E-01
          0                 3           1             3    7     1       0.4266968440E-04       4   13    1         0.1749713369E-02      0.6677067939E-02

    ------------------------------------------------
       NWT REQUIRED            3 OUTER ITERATIONS 
       AND A TOTAL OF          5 INNER ITERATIONS.
    ------------------------------------------------

 NO OUTPUT CONTROL FOR STRESS PERIOD   40   TIME STEP   18
 
 SOLVING FOR HEAD 
                                                   Max.-Head-Change                         Max.-Flux-Residual
  Residual-Control   Outer-Iter.   Inner-Iter.     Column Row Layer    Maximum-Head-Change  Column Row Layer    Maximum-Flux-Residual          L2-NORM 
          0                 1           2             3    7     1       0.6434257532E-02       4    7    1         0.2544218117E+00      0.1049087038E+01
          0                 2           2             3    7     1      -0.6194824713E-03       6    7    1        -0.2336205548E-01      0.9173580470E-01
          0                 3           1             3    7     1       0.4242740541E-04       6    7    1         0.1639277637E-02      0.6542647232E-02

    ------------------------------------------------
       NWT REQUIRED            3 OUTER ITERATIONS 
       AND A TOTAL OF          5 INNER ITERATIONS.
    ------------------------------------------------

 NO OUTPUT CONTROL FOR STRESS PERIOD   40   TIME STEP   19
 
 SOLVING FOR HEAD 
                                                   Max.-Head-Change                         Max.-Flux-Residual
  Residual-Control   Outer-Iter.   Inner-Iter.     Column Row Layer    Maximum-Head-Change  Column Row Layer    Maximum-Flux-Residual          L2-NORM 
          0                 1           2             3    7     1       0.6397892267E-02       4    7    1         0.2535704007E+00      0.1041328907E+01
          0                 2           2             3    7     1      -0.6159665467E-03       6    7    1        -0.2320697515E-01      0.9083086643E-01
          0                 3           1             3    7     1       0.4218717293E-04       6    7    1         0.1628410202E-02      0.6431350914E-02

    ------------------------------------------------
       NWT REQUIRED            3 OUTER ITERATIONS 
       AND A TOTAL OF          5 INNER ITERATIONS.
    ------------------------------------------------

 NO OUTPUT CONTROL FOR STRESS PERIOD   40   TIME STEP   20
 
 SOLVING FOR HEAD 
                                                   Max.-Head-Change                         Max.-Flux-Residual
  Residual-Control   Outer-Iter.   Inner-Iter.     Column Row Layer    Maximum-Head-Change  Column Row Layer    Maximum-Flux-Residual          L2-NORM 
          0                 1           2             3    7     1       0.6361829105E-02       4    7    1         0.2527131392E+00      0.1034182952E+01
          0                 2           2             3    7     1      -0.6124801440E-03       6    7    1        -0.2305569937E-01      0.9001782413E-01
          0                 3           1             3    7     1       0.4194894542E-04       6    7    1         0.1617808909E-02      0.6334329662E-02

    ------------------------------------------------
       NWT REQUIRED            3 OUTER ITERATIONS 
       AND A TOTAL OF          5 INNER ITERATIONS.
    ------------------------------------------------

 NO OUTPUT CONTROL FOR STRESS PERIOD   40   TIME STEP   21
 
 SOLVING FOR HEAD 
                                                   Max.-Head-Change                         Max.-Flux-Residual
  Residual-Control   Outer-Iter.   Inner-Iter.     Column Row Layer    Maximum-Head-Change  Column Row Layer    Maximum-Flux-Residual          L2-NORM 
          0                 1           2             3    7     1       0.6326302119E-02       4    7    1         0.2518503377E+00      0.1027557766E+01
          0                 2           2             3    7     1      -0.6090460236E-03       6    7    1        -0.2290808600E-01      0.8928072323E-01
          0                 3           1             3    7     1       0.4171427322E-04       6    7    1         0.1607463711E-02      0.6249623282E-02

    ------------------------------------------------
       NWT REQUIRED            3 OUTER ITERATIONS 
       AND A TOTAL OF          5 INNER ITERATIONS.
    ------------------------------------------------

 NO OUTPUT CONTROL FOR STRESS PERIOD   40   TIME STEP   22
 
 SOLVING FOR HEAD 
                                                   Max.-Head-Change                         Max.-Flux-Residual
  Residual-Control   Outer-Iter.   Inner-Iter.     Column Row Layer    Maximum-Head-Change  Column Row Layer    Maximum-Flux-Residual          L2-NORM 
          0                 1           2             3    7     1       0.6291060351E-02       4    7    1         0.2509969906E+00      0.1021391975E+01
          0                 2           2             3    7     1      -0.6056394258E-03       6    7    1        -0.2276323834E-01      0.8861006933E-01
          0                 3           1             3    7     1       0.4148148293E-04       6    7    1         0.1597312118E-02      0.6176952206E-02

    ------------------------------------------------
       NWT REQUIRED            3 OUTER ITERATIONS 
       AND A TOTAL OF          5 INNER ITERATIONS.
    ------------------------------------------------

 NO OUTPUT CONTROL FOR STRESS PERIOD   40   TIME STEP   23
 
 SOLVING FOR HEAD 
                                                   Max.-Head-Change                         Max.-Flux-Residual
  Residual-Control   Outer-Iter.   Inner-Iter.     Column Row Layer    Maximum-Head-Change  Column Row Layer    Maximum-Flux-Residual          L2-NORM 
          0                 1           2             3    7     1       0.6256338434E-02       4    7    1         0.2501380606E+00      0.1015613227E+01
          0                 2           2             3    7     1      -0.6022835284E-03       6    7    1        -0.2262181983E-01      0.8799505324E-01
          0                 3           1             3    7     1       0.4125213990E-04       6    7    1         0.1587400322E-02      0.6112798156E-02

    ------------------------------------------------
       NWT REQUIRED            3 OUTER ITERATIONS 
       AND A TOTAL OF          5 INNER ITERATIONS.
    ------------------------------------------------

 NO OUTPUT CONTROL FOR STRESS PERIOD   40   TIME STEP   24
 
 SOLVING FOR HEAD 
                                                   Max.-Head-Change                         Max.-Flux-Residual
  Residual-Control   Outer-Iter.   Inner-Iter.     Column Row Layer    Maximum-Head-Change  Column Row Layer    Maximum-Flux-Residual          L2-NORM 
          0                 1           2             3    7     1       0.6222125321E-02       4    7    1         0.2492811229E+00      0.1010178198E+01
          0                 2           2             3    7     1      -0.5989770651E-03       6    7    1        -0.2248368422E-01      0.8742930592E-01
          0                 3           1             3    7     1       0.4102616533E-04       6    7    1         0.1577718216E-02      0.6056331407E-02

    ------------------------------------------------
       NWT REQUIRED            3 OUTER ITERATIONS 
       AND A TOTAL OF          5 INNER ITERATIONS.
    ------------------------------------------------

 NO OUTPUT CONTROL FOR STRESS PERIOD   40   TIME STEP   25
 
 SOLVING FOR HEAD 
                                                   Max.-Head-Change                         Max.-Flux-Residual
  Residual-Control   Outer-Iter.   Inner-Iter.     Column Row Layer    Maximum-Head-Change  Column Row Layer    Maximum-Flux-Residual          L2-NORM 
          0                 1           2             3    7     1       0.6187923892E-02       4    7    1         0.2484190466E+00      0.1005029487E+01
          0                 2           2             3    7     1      -0.5956718639E-03       6    7    1        -0.2234798300E-01      0.8690331172E-01
          0                 3           1             3    7     1       0.4080027193E-04       6    7    1         0.1568206310E-02      0.6004884962E-02

    ------------------------------------------------
       NWT REQUIRED            3 OUTER ITERATIONS 
       AND A TOTAL OF          5 INNER ITERATIONS.
    ------------------------------------------------

 NO OUTPUT CONTROL FOR STRESS PERIOD   40   TIME STEP   26
 
 SOLVING FOR HEAD 
                                                   Max.-Head-Change                         Max.-Flux-Residual
  Residual-Control   Outer-Iter.   Inner-Iter.     Column Row Layer    Maximum-Head-Change  Column Row Layer    Maximum-Flux-Residual          L2-NORM 
          0                 1           2             3    7     1       0.6154463761E-02       4    7    1         0.2475666009E+00      0.1000147576E+01
          0                 2           2             3    7     1      -0.5924385468E-03       6    7    1        -0.2221535165E-01      0.8641341961E-01
          0                 3           1             3    7     1       0.4057928099E-04       6    7    1         0.1558909326E-02      0.5957610902E-02

    ------------------------------------------------
       NWT REQUIRED            3 OUTER ITERATIONS 
       AND A TOTAL OF          5 INNER ITERATIONS.
    ------------------------------------------------

 NO OUTPUT CONTROL FOR STRESS PERIOD   40   TIME STEP   27
 
 SOLVING FOR HEAD 
                                                   Max.-Head-Change                         Max.-Flux-Residual
  Residual-Control   Outer-Iter.   Inner-Iter.     Column Row Layer    Maximum-Head-Change  Column Row Layer    Maximum-Flux-Residual          L2-NORM 
          0                 1           2             3    7     1       0.6121242625E-02       4    7    1         0.2467087763E+00      0.9954974853E+00
          0                 2           2             3    7     1      -0.5892285937E-03       6    7    1        -0.2208497133E-01      0.8595557727E-01
          0                 3           1             3    7     1       0.4035987705E-04       6    7    1         0.1549769737E-02      0.5917544164E-02

    ------------------------------------------------
       NWT REQUIRED            3 OUTER ITERATIONS 
       AND A TOTAL OF          5 INNER ITERATIONS.
    ------------------------------------------------

 NO OUTPUT CONTROL FOR STRESS PERIOD   40   TIME STEP   28
 
 SOLVING FOR HEAD 
                                                   Max.-Head-Change                         Max.-Flux-Residual
  Residual-Control   Outer-Iter.   Inner-Iter.     Column Row Layer    Maximum-Head-Change  Column Row Layer    Maximum-Flux-Residual          L2-NORM 
          0                 1           2             3    7     1       0.6088255968E-02       4    7    1         0.2458533384E+00      0.9910455387E+00
          0                 2           2             3    7     1      -0.5860413935E-03       6    7    1        -0.2195748535E-01      0.8552378506E-01
          0                 3           1             3    7     1       0.4014202499E-04       6    7    1         0.1540832710E-02      0.5879575822E-02

    ------------------------------------------------
       NWT REQUIRED            3 OUTER ITERATIONS 
       AND A TOTAL OF          5 INNER ITERATIONS.
    ------------------------------------------------

 NO OUTPUT CONTROL FOR STRESS PERIOD   40   TIME STEP   29
 
 SOLVING FOR HEAD 
                                                   Max.-Head-Change                         Max.-Flux-Residual
  Residual-Control   Outer-Iter.   Inner-Iter.     Column Row Layer    Maximum-Head-Change  Column Row Layer    Maximum-Flux-Residual          L2-NORM 
          0                 1           2             3    7     1       0.6055739370E-02       4    7    1         0.2449928769E+00      0.9867709667E+00
          0                 2           2             3    7     1      -0.5829000304E-03       6    7    1        -0.2183205019E-01      0.8511587821E-01
          0                 3           1             3    7     1       0.3992729050E-04       6    7    1         0.1532039059E-02      0.5844840496E-02

    ------------------------------------------------
       NWT REQUIRED            3 OUTER ITERATIONS 
       AND A TOTAL OF          5 INNER ITERATIONS.
    ------------------------------------------------

 NO OUTPUT CONTROL FOR STRESS PERIOD   40   TIME STEP   30



 STREAM LISTING     PERIOD     40   STEP       30

 LAYER ROW COL. STREAM  RCH.  FLOW INTO     FLOW TO   FLOW OUT OF   OVRLND.     DIRECT     STREAM       STREAM     STREAM     STREAM   STREAMBED  STREAMBED
                SEG.NO.  NO.  STRM. RCH.    AQUIFER    STRM. RCH.    RUNOFF     PRECIP       ET          HEAD       DEPTH      WIDTH   CONDCTNC.   GRADIENT

   1    1    1     1     1    3.6749E+01  2.9261E-01   3.6456E+01  0.000E+00  0.000E+00  0.000E+00  1.09435E+03  1.306E+00  1.510E+01  6.795E-02  1.435E+00
   1    2    2     1     2    3.6456E+01  4.5309E-01   3.6003E+01  0.000E+00  0.000E+00  0.000E+00  1.08936E+03  1.303E+00  1.504E+01  1.053E-01  1.434E+00
   1    3    3     1     3    3.6003E+01  3.8635E-01   3.5617E+01  0.000E+00  0.000E+00  0.000E+00  1.08372E+03  1.300E+00  1.497E+01  8.985E-02  1.433E+00
   1    3    4     1     4    3.5617E+01  3.5571E-01   3.5261E+01  0.000E+00  0.000E+00  0.000E+00  1.07870E+03  1.297E+00  1.492E+01  8.278E-02  1.432E+00
   1    4    5     2     1    3.3261E+01  3.4544E-01   3.2916E+01  0.000E+00  0.000E+00  0.000E+00  1.07336E+03  1.429E+00  1.200E+01  7.800E-02  1.476E+00
   1    5    6     2     2    3.2916E+01  2.6525E-01   3.2650E+01  0.000E+00  0.000E+00  0.000E+00  1.06793E+03  1.421E+00  1.200E+01  6.000E-02  1.474E+00
   1    6    6     2     3    3.2650E+01  2.6483E-01   3.2386E+01  0.000E+00  0.000E+00  0.000E+00  1.06321E+03  1.414E+00  1.200E+01  6.000E-02  1.471E+00
   1    7    6     2     4    3.2386E+01  2.6442E-01   3.2121E+01  0.000E+00  0.000E+00  0.000E+00  1.05848E+03  1.407E+00  1.200E+01  6.000E-02  1.469E+00
   1    8    6     2     5    3.2121E+01  2.6400E-01   3.1857E+01  0.000E+00  0.000E+00  0.000E+00  1.05376E+03  1.400E+00  1.200E+01  6.000E-02  1.467E+00
   1    3    5     3     1    2.0000E+00  2.8252E-01   1.7175E+00  0.000E+00  0.000E+00  0.000E+00  1.07555E+03  1.909E+00  9.636E+00  7.227E-02  1.955E+00
   1    3    6     3     2    1.7175E+00  2.4905E-01   1.4684E+00  0.000E+00  0.000E+00  0.000E+00  1.07264E+03  1.727E+00  8.909E+00  6.682E-02  1.864E+00
   1    3    7     3     3    1.4684E+00  1.9718E-01   1.2712E+00  0.000E+00  0.000E+00  0.000E+00  1.06987E+03  1.555E+00  8.218E+00  5.547E-02  1.777E+00
   1    4    8     3     4    1.2712E+00  2.2567E-01   1.0456E+00  0.000E+00  0.000E+00  0.000E+00  1.06682E+03  1.364E+00  7.455E+00  6.709E-02  1.682E+00
   1    5    8     3     5    1.0456E+00  1.5790E-01   8.8768E-01  0.000E+00  0.000E+00  0.000E+00  1.06362E+03  1.164E+00  6.655E+00  4.991E-02  1.582E+00
   1    6    8     3     6    8.8768E-01  5.5980E-02   8.3170E-01  0.000E+00  0.000E+00  0.000E+00  1.06158E+03  1.036E+00  6.145E+00  1.844E-02  1.518E+00
   1    5   10     4     1    1.0000E+01  9.0919E-02   9.9091E+00  0.000E+00  0.000E+00  0.000E+00  1.07836E+03  6.368E-01  1.000E+01  2.500E-02  1.212E+00
   1    5    9     4     2    9.9091E+00  1.8158E-01   9.7275E+00  0.000E+00  0.000E+00  0.000E+00  1.07154E+03  6.315E-01  1.000E+01  5.000E-02  1.211E+00
   1    6    8     4     3    9.7275E+00  1.2689E-01   9.6006E+00  0.000E+00  0.000E+00  0.000E+00  1.06381E+03  6.256E-01  1.000E+01  3.500E-02  1.209E+00
   1    6    8     5     1    1.0432E+01  2.2686E-01   1.0205E+01  0.000E+00  0.000E+00  0.000E+00  1.05868E+03  6.790E-01  1.542E+01  6.166E-02  1.226E+00
   1    7    7     5     2    1.0205E+01  2.7894E-01   9.9265E+00  0.000E+00  0.000E+00  0.000E+00  1.05417E+03  6.732E-01  1.519E+01  7.594E-02  1.224E+00
   1    8    7     5     3    9.9265E+00  1.9221E-01   9.7343E+00  0.000E+00  0.000E+00  0.000E+00  1.04992E+03  6.676E-01  1.497E+01  5.241E-02  1.223E+00
   1    8    6     5     4    9.7343E+00  1.3577E-01   9.5985E+00  0.000E+00  0.000E+00  0.000E+00  1.04691E+03  6.637E-01  1.482E+01  3.706E-02  1.221E+00
   1    9    6     6     1    4.1456E+01  2.7904E-01   4.1177E+01  0.000E+00  0.000E+00  0.000E+00  1.04438E+03  1.651E+00  1.200E+01  6.000E-02  1.550E+00
   1   10    7     6     2    4.1177E+01  2.7863E-01   4.0898E+01  0.000E+00  0.000E+00  0.000E+00  1.03983E+03  1.644E+00  1.200E+01  6.000E-02  1.548E+00
   1   11    7     6     3    4.0898E+01  2.7823E-01   4.0620E+01  0.000E+00  0.000E+00  0.000E+00  1.03527E+03  1.637E+00  1.200E+01  6.000E-02  1.546E+00
   1   12    7     6     4    4.0620E+01  2.7783E-01   4.0342E+01  0.000E+00  0.000E+00  0.000E+00  1.03072E+03  1.630E+00  1.200E+01  6.000E-02  1.543E+00
   1   13    7     6     5    4.0342E+01  2.4362E-02   4.0318E+01  0.000E+00  0.000E+00  0.000E+00  1.02754E+03  1.627E+00  1.200E+01  2.400E-02  3.384E-01
   1   14    9     7     1    1.5000E+02  1.3952E+00   1.4860E+02  0.000E+00  0.000E+00  0.000E+00  1.03987E+03  2.288E+00  5.529E+01  5.593E-01  8.315E-01
   1   13    8     7     2    1.4860E+02  2.0178E+00   1.4659E+02  0.000E+00  0.000E+00  0.000E+00  1.03478E+03  2.278E+00  5.525E+01  6.147E-01  1.094E+00
   1   13    7     7     3    1.4659E+02  1.7682E+00   1.4482E+02  0.000E+00  0.000E+00  0.000E+00  1.02969E+03  2.268E+00  5.521E+01  5.583E-01  1.056E+00
   1   13    6     8     1    1.8514E+02  1.2771E+00   1.8386E+02  0.000E+00  0.000E+00  0.000E+00  1.02492E+03  3.044E+00  4.414E+01  4.498E-01  9.464E-01
   1   13    5     8     2    1.8386E+02  4.7317E-01   1.8339E+02  0.000E+00  0.000E+00  0.000E+00  1.01866E+03  3.039E+00  4.406E+01  4.490E-01  3.513E-01
   1   13    4     8     3    1.8339E+02 -1.5484E+00   1.8493E+02  0.000E+00  0.000E+00  0.000E+00  1.01242E+03  3.042E+00  4.411E+01  4.495E+00 -1.148E-01
   1   13    3     8     4    1.8493E+02 -3.2140E+00   1.8815E+02  0.000E+00  0.000E+00  0.000E+00  1.00618E+03  3.057E+00  4.432E+01  4.517E+00 -2.372E-01
   1   13    2     8     5    1.8815E+02 -2.3948E+00   1.9054E+02  0.000E+00  0.000E+00  0.000E+00  9.99949E+02  3.074E+00  4.457E+01  4.542E+00 -1.757E-01
   1   13    1     8     6    1.9054E+02 -1.8684E+00   1.9241E+02  0.000E+00  0.000E+00  0.000E+00  9.94962E+02  3.087E+00  4.476E+01  2.737E+00 -2.276E-01
   1    8    6     9     1    0.0000E+00  0.0000E+00   0.0000E+00  0.000E+00  0.000E+00  0.000E+00  1.07875E+03  0.000E+00  4.000E+00  0.000E+00  1.000E+00
   1    8    5     9     2    0.0000E+00  0.0000E+00   0.0000E+00  0.000E+00  0.000E+00  0.000E+00  1.07825E+03  0.000E+00  4.000E+00  0.000E+00  1.000E+00





UNSATURATED ZONE PACKAGE VOLUMETRIC BUDGET FOR  TIME STEP    30 STRESS PERIOD   40
  ------------------------------------------------------------------------------



     CUMULATIVE VOLUMES      L**3       RATES FOR THIS TIME STEP      L**3/T
     ------------------                 ------------------------

           IN:                                      IN:
           ---                                      ---
        INFILTRATION =  1894474179.6550          INFILTRATION =           4.4075

          OUT:                                     OUT:
          ----                                     ----
              UZF ET =  1499138946.5035                UZF ET =           0.7250
        UZF RECHARGE =    64294959.5189          UZF RECHARGE =           0.2980

            IN - OUT =   331040273.6326              IN - OUT =           3.3845

          STORAGE:                                 STORAGE:
          --------                                 --------
      STORAGE CHANGE =   331040243.0209        STORAGE CHANGE =           3.3845

 PERCENT DISCREPANCY IS DIFFERENCE BETWEEN IN-OUT MINUS CHANGE IN STORAGE
 DIVIDED BY THE AVERAGE OF IN AND OUT TIMES 100

 PERCENT DISCREPANCY =           0.00     PERCENT DISCREPANCY =           0.00






1
  VOLUMETRIC BUDGET FOR AGRICULTURAL FIELDS AT  END OF TIME STEP   30, STRESS PERIOD  40
  ------------------------------------------------------------------------------

     CUMULATIVE VOLUMES      L**3       RATES FOR THIS TIME STEP      L**3/T
     ------------------                 ------------------------

           IN:                                      IN:
           ---                                      ---
               AG WELLS  =   871999872.0000                 AG WELLS  =           0.0000
      DIVERSION SEGMENTS =   570691712.0000        DIVERSION SEGMENTS =           0.0000
           GW IRRIGATION =           0.0000             GW IRRIGATION =           0.0000
           SW IRRIGATION =           0.0000             SW IRRIGATION =           0.0000
        SYSTEM LOSSES GW =           0.0000          SYSTEM LOSSES GW =           0.0000
        SYSTEM LOSSES SW =           0.0000          SYSTEM LOSSES SW =           0.0000

                TOTAL IN =  1442691584.0000                  TOTAL IN =           0.0000

          OUT:                                     OUT:
          ----                                     ----
               AG WELLS  =           0.0000                 AG WELLS  =           0.0000
      DIVERSION SEGMENTS =           0.0000        DIVERSION SEGMENTS =           0.0000
           GW IRRIGATION =   871999872.0000             GW IRRIGATION =           0.0000
           SW IRRIGATION =   570702976.0000             SW IRRIGATION =           0.0000
        SYSTEM LOSSES GW =           0.0000          SYSTEM LOSSES GW =           0.0000
        SYSTEM LOSSES SW =           0.0000          SYSTEM LOSSES SW =           0.0000

               TOTAL OUT =  1442702848.0000                 TOTAL OUT =           0.0000

                IN - OUT =      -11264.0000                  IN - OUT =           0.0000

     PERCENT DISCREPANCY =          -0.00         PERCENT DISCREPANCY =           0.00



1
  VOLUMETRIC BUDGET FOR ENTIRE MODEL AT END OF TIME STEP   30, STRESS PERIOD  40
  ------------------------------------------------------------------------------

     CUMULATIVE VOLUMES      L**3       RATES FOR THIS TIME STEP      L**3/T
     ------------------                 ------------------------

           IN:                                      IN:
           ---                                      ---
             STORAGE     =  1322701184.0000               STORAGE     =           1.5274
       CONSTANT HEAD     =           0.0000         CONSTANT HEAD     =           0.0000
     HEAD DEP BOUNDS     =    29617542.0000       HEAD DEP BOUNDS     =           0.2898
      STREAM LEAKAGE     =  1222805120.0000        STREAM LEAKAGE     =          13.3627
        UZF RECHARGE     =    64294956.0000          UZF RECHARGE     =           0.2980
               GW ET     =           0.0000                 GW ET     =           0.0000
     SURFACE LEAKAGE     =           0.0000       SURFACE LEAKAGE     =           0.0000
           AG WELLS      =           0.0000             AG WELLS      =           0.0000

                TOTAL IN =  2639418880.0000                  TOTAL IN =          15.4779

          OUT:                                     OUT:
          ----                                     ----
             STORAGE     =   718903552.0000               STORAGE     =           6.1626
       CONSTANT HEAD     =           0.0000         CONSTANT HEAD     =           0.0000
     HEAD DEP BOUNDS     =    29545394.0000       HEAD DEP BOUNDS     =           0.2905
      STREAM LEAKAGE     =  1018976256.0000        STREAM LEAKAGE     =           9.0255
        UZF RECHARGE     =           0.0000          UZF RECHARGE     =           0.0000
               GW ET     =           0.0000                 GW ET     =           0.0000
     SURFACE LEAKAGE     =           0.0000       SURFACE LEAKAGE     =           0.0000
           AG WELLS      =   871999872.0000             AG WELLS      =           0.0000

               TOTAL OUT =  2639425024.0000                 TOTAL OUT =          15.4786

                IN - OUT =       -6144.0000                  IN - OUT =      -6.3419E-04

     PERCENT DISCREPANCY =          -0.00         PERCENT DISCREPANCY =          -0.00






         TIME SUMMARY AT END OF TIME STEP   30 IN STRESS PERIOD   40
                    SECONDS     MINUTES      HOURS       DAYS        YEARS
                    -----------------------------------------------------------
   TIME STEP LENGTH  87667.      1461.1      24.352      1.0147     2.77799E-03
 STRESS PERIOD TIME 2.63000E+06  43833.      730.56      30.440     8.33397E-02
         TOTAL TIME 1.02656E+08 1.71093E+06  28515.      1188.1      3.2530    
1
1
                            STRESS PERIOD NO.   41, LENGTH =   2630000.    
                            -----------------------------------------------

                              NUMBER OF TIME STEPS =    30

                               MULTIPLIER FOR DELT =     1.000

                            INITIAL TIME STEP SIZE =   87666.66    

 REUSING NON-PARAMETER GHB CELLS FROM LAST STRESS PERIOD

      2 GHB CELLS

 REUSING STREAM SEGMENT DATA FROM LAST STRESS PERIOD



            AREAL INFILTRATION RATE
 READING ON UNIT   19 WITH FORMAT: (10F4.0)            

            1           2           3           4           5           6           7           8           9          10
 ........................................................................................................................
   1   1.2000E-09   0.000       0.000       0.000       0.000       0.000       0.000       0.000       0.000       0.000    
   2   2.1000E-09  2.0000E-09  8.0000E-10  8.5000E-09   0.000       0.000       0.000       0.000       0.000       0.000    
   3   5.0000E-10  1.1000E-09  8.8000E-09  5.5000E-09   0.000       0.000       0.000       0.000       0.000       0.000    
   4   8.5000E-09  1.1000E-09  1.1000E-09  1.1000E-09  2.0000E-09   0.000       0.000       0.000       0.000       0.000    
   5   8.5000E-09  1.1000E-09  1.1000E-09  1.1000E-09  1.1000E-09   0.000       0.000       0.000       0.000       0.000    
   6   8.5000E-09  5.2000E-09  2.1000E-09  1.1000E-09  1.5000E-09   0.000       0.000       0.000       0.000       0.000    
   7   8.5000E-09  5.2000E-09  2.1000E-09  1.2000E-09  2.0000E-09   0.000       0.000       0.000       0.000       0.000    
   8   5.0000E-10  5.2000E-09  2.1000E-09  1.2000E-09  5.0000E-09   0.000       0.000       0.000       0.000       0.000    
   9   5.0000E-10  5.2000E-09  2.1000E-09  1.2000E-09  5.0000E-09   0.000       0.000       0.000       0.000       0.000    
  10   5.0000E-10  5.2000E-09  2.1000E-09  1.2000E-09  5.8000E-09   0.000       0.000       0.000       0.000       0.000    
  11   1.0000E-10  1.1000E-09  1.1000E-09  1.2000E-09  5.0000E-09   0.000       0.000       0.000       0.000       0.000    
  12   1.1000E-09  1.1000E-09  1.1000E-09  1.1000E-09  2.0000E-09   0.000       0.000       0.000       0.000       0.000    
  13   1.1000E-09  2.2000E-09  2.2000E-09  2.1000E-09  1.0000E-09   0.000       0.000       0.000       0.000       0.000    
  14   2.0000E-10  5.5000E-09  5.5000E-09  5.2000E-09  1.0000E-09   0.000       0.000       0.000       0.000       0.000    
  15    0.000      8.8000E-09  8.8000E-09   0.000       0.000       0.000       0.000       0.000       0.000       0.000    

                  ET RATE =  2.500000E-08

 USING ET EXTINCTION DEPTH FROM PREVIOUS STRESS PERIOD. CURRENT PERIOD IS:      41

 USING EXTINCTION WATER CONTENT FROM PREVIOUS STRESS PERIOD. CURRENT PERIOD IS:      41

 USING AIR ENTRY PRESSURE FROM PREVIOUS STRESS PERIOD. CURRENT PERIOD IS:      41

 USING ROOT PRESSURE HEAD FROM PREVIOUS STRESS PERIOD. CURRENT PERIOD IS:      41

 USING ROOT ACTIVITY FROM PREVIOUS STRESS PERIOD. CURRENT PERIOD IS:      41

 PROCESSING AG STRESS PERIOD DATA

 READING AG STRESS PERIOD DATA

 READING IRRIGATION SEGMENT

 READING IRRIGATION WELL

 READING SUPPLEMENTAL WELL

 END PROCESSING AG STRESS PERIOD DATA OPTIONS
 
 SOLVING FOR HEAD 
                                                   Max.-Head-Change                         Max.-Flux-Residual
  Residual-Control   Outer-Iter.   Inner-Iter.     Column Row Layer    Maximum-Head-Change  Column Row Layer    Maximum-Flux-Residual          L2-NORM 
          0                 1           2             3    7     1       0.6023442534E-02       4    7    1         0.2441350919E+00      0.9826634515E+00
          0                 2           2             3    7     1      -0.5797799742E-03       6    7    1        -0.2171007056E-01      0.8472947706E-01
          0                 3           1             3    7     1       0.3971400871E-04       6    7    1         0.1523487399E-02      0.5812540699E-02

    ------------------------------------------------
       NWT REQUIRED            3 OUTER ITERATIONS 
       AND A TOTAL OF          5 INNER ITERATIONS.
    ------------------------------------------------

 NO OUTPUT CONTROL FOR STRESS PERIOD   41   TIME STEP    1
 
 SOLVING FOR HEAD 
                                                   Max.-Head-Change                         Max.-Flux-Residual
  Residual-Control   Outer-Iter.   Inner-Iter.     Column Row Layer    Maximum-Head-Change  Column Row Layer    Maximum-Flux-Residual          L2-NORM 
          0                 1           2             3    7     1       0.5991603523E-02       4    7    1         0.2432800498E+00      0.9787045516E+00
          0                 2           2             3    7     1      -0.5767043927E-03       6    7    1        -0.2158995186E-01      0.8436298779E-01
          0                 3           1             3    7     1       0.3950375741E-04       6    7    1         0.1515065837E-02      0.5782573794E-02

    ------------------------------------------------
       NWT REQUIRED            3 OUTER ITERATIONS 
       AND A TOTAL OF          5 INNER ITERATIONS.
    ------------------------------------------------

 NO OUTPUT CONTROL FOR STRESS PERIOD   41   TIME STEP    2
 
 SOLVING FOR HEAD 
                                                   Max.-Head-Change                         Max.-Flux-Residual
  Residual-Control   Outer-Iter.   Inner-Iter.     Column Row Layer    Maximum-Head-Change  Column Row Layer    Maximum-Flux-Residual          L2-NORM 
          0                 1           2             3    7     1       0.5959969058E-02       4    7    1         0.2424275765E+00      0.9748685576E+00
          0                 2           2             3    7     1      -0.5736486406E-03       6    7    1        -0.2147164561E-01      0.8401165097E-01
          0                 3           1             3    7     1       0.3929485857E-04       6    7    1         0.1506771155E-02      0.5754693834E-02

    ------------------------------------------------
       NWT REQUIRED            3 OUTER ITERATIONS 
       AND A TOTAL OF          5 INNER ITERATIONS.
    ------------------------------------------------

 NO OUTPUT CONTROL FOR STRESS PERIOD   41   TIME STEP    3
 
 SOLVING FOR HEAD 
                                                   Max.-Head-Change                         Max.-Flux-Residual
  Residual-Control   Outer-Iter.   Inner-Iter.     Column Row Layer    Maximum-Head-Change  Column Row Layer    Maximum-Flux-Residual          L2-NORM 
          0                 1           2             3    7     1       0.5928778854E-02       4    7    1         0.2415703891E+00      0.9669309170E+00
          0                 2           2             3    7     1      -0.5706362185E-03       6    7    1        -0.2125920749E-01      0.8314448831E-01
          0                 3           1             3    7     1       0.3908890750E-04       6    7    1         0.1491886883E-02      0.5673860758E-02

    ------------------------------------------------
       NWT REQUIRED            3 OUTER ITERATIONS 
       AND A TOTAL OF          5 INNER ITERATIONS.
    ------------------------------------------------

 NO OUTPUT CONTROL FOR STRESS PERIOD   41   TIME STEP    4
 
 SOLVING FOR HEAD 
                                                   Max.-Head-Change                         Max.-Flux-Residual
  Residual-Control   Outer-Iter.   Inner-Iter.     Column Row Layer    Maximum-Head-Change  Column Row Layer    Maximum-Flux-Residual          L2-NORM 
          0                 1           2             3    7     1       0.5897778801E-02       4    7    1         0.2407159509E+00      0.9668173746E+00
          0                 2           2             3    7     1      -0.5676423661E-03       4   13    1        -0.2233164797E-01      0.8528160544E-01
          0                 3           1             3   13     1      -0.4550510618E-04       3   13    1        -0.2637463818E-02      0.6370359828E-02

    ------------------------------------------------
       NWT REQUIRED            3 OUTER ITERATIONS 
       AND A TOTAL OF          5 INNER ITERATIONS.
    ------------------------------------------------

 NO OUTPUT CONTROL FOR STRESS PERIOD   41   TIME STEP    5
 
 SOLVING FOR HEAD 
                                                   Max.-Head-Change                         Max.-Flux-Residual
  Residual-Control   Outer-Iter.   Inner-Iter.     Column Row Layer    Maximum-Head-Change  Column Row Layer    Maximum-Flux-Residual          L2-NORM 
          0                 1           2             3    7     1       0.5867207873E-02       4    7    1         0.2398610192E+00      0.9572879848E+00
          0                 2           2             3    7     1      -0.5646902655E-03       4    5    1        -0.2013008873E-01      0.8383005928E-01
          0                 3           1             3   13     1      -0.4060324124E-04       3   13    1        -0.2355207708E-02      0.6229639166E-02

    ------------------------------------------------
       NWT REQUIRED            3 OUTER ITERATIONS 
       AND A TOTAL OF          5 INNER ITERATIONS.
    ------------------------------------------------

 NO OUTPUT CONTROL FOR STRESS PERIOD   41   TIME STEP    6
 
 SOLVING FOR HEAD 
                                                   Max.-Head-Change                         Max.-Flux-Residual
  Residual-Control   Outer-Iter.   Inner-Iter.     Column Row Layer    Maximum-Head-Change  Column Row Layer    Maximum-Flux-Residual          L2-NORM 
          0                 1           2             3    7     1       0.5837057725E-02       4    7    1         0.2390057351E+00      0.9486836103E+00
          0                 2           2             3    7     1      -0.5617790949E-03       4    5    1        -0.2008661645E-01      0.8227503498E-01
          0                 3           1             4   13     1      -0.3939282510E-04       4   13    1        -0.2271283957E-02      0.6116618299E-02

    ------------------------------------------------
       NWT REQUIRED            3 OUTER ITERATIONS 
       AND A TOTAL OF          5 INNER ITERATIONS.
    ------------------------------------------------

 NO OUTPUT CONTROL FOR STRESS PERIOD   41   TIME STEP    7
 
 SOLVING FOR HEAD 
                                                   Max.-Head-Change                         Max.-Flux-Residual
  Residual-Control   Outer-Iter.   Inner-Iter.     Column Row Layer    Maximum-Head-Change  Column Row Layer    Maximum-Flux-Residual          L2-NORM 
          0                 1           2             3    7     1       0.5807074110E-02       4    7    1         0.2381430261E+00      0.9425707086E+00
          0                 2           2             3    7     1      -0.5588842805E-03       4    5    1        -0.2004140893E-01      0.8092372673E-01
          0                 3           1             3    7     1       0.3828532104E-04       4   13    1        -0.1924007609E-02      0.5795584687E-02

    ------------------------------------------------
       NWT REQUIRED            3 OUTER ITERATIONS 
       AND A TOTAL OF          5 INNER ITERATIONS.
    ------------------------------------------------

 NO OUTPUT CONTROL FOR STRESS PERIOD   41   TIME STEP    8
 
 SOLVING FOR HEAD 
                                                   Max.-Head-Change                         Max.-Flux-Residual
  Residual-Control   Outer-Iter.   Inner-Iter.     Column Row Layer    Maximum-Head-Change  Column Row Layer    Maximum-Flux-Residual          L2-NORM 
          0                 1           2             3    7     1       0.5777496276E-02       4    7    1         0.2372809946E+00      0.9362724315E+00
          0                 2           2             3    7     1      -0.5560289086E-03       4    5    1        -0.1999609071E-01      0.7975649688E-01
          0                 3           1             3    7     1       0.3809005222E-04       4   13    1        -0.1670141109E-02      0.5623035933E-02

    ------------------------------------------------
       NWT REQUIRED            3 OUTER ITERATIONS 
       AND A TOTAL OF          5 INNER ITERATIONS.
    ------------------------------------------------

 NO OUTPUT CONTROL FOR STRESS PERIOD   41   TIME STEP    9
 
 SOLVING FOR HEAD 
                                                   Max.-Head-Change                         Max.-Flux-Residual
  Residual-Control   Outer-Iter.   Inner-Iter.     Column Row Layer    Maximum-Head-Change  Column Row Layer    Maximum-Flux-Residual          L2-NORM 
          0                 1           2             3    7     1       0.5748073479E-02       4    7    1         0.2364199237E+00      0.9304476715E+00
          0                 2           2             3    7     1      -0.5531885935E-03       4    5    1        -0.1994925569E-01      0.7908390227E-01
          0                 3           1             3    7     1       0.3789580665E-04       4   13    1        -0.1459357787E-02      0.5526325363E-02

    ------------------------------------------------
       NWT REQUIRED            3 OUTER ITERATIONS 
       AND A TOTAL OF          5 INNER ITERATIONS.
    ------------------------------------------------

 NO OUTPUT CONTROL FOR STRESS PERIOD   41   TIME STEP   10
 
 SOLVING FOR HEAD 
                                                   Max.-Head-Change                         Max.-Flux-Residual
  Residual-Control   Outer-Iter.   Inner-Iter.     Column Row Layer    Maximum-Head-Change  Column Row Layer    Maximum-Flux-Residual          L2-NORM 
          0                 1           2             3    7     1       0.5719044157E-02       4    7    1         0.2355525244E+00      0.9249734182E+00
          0                 2           2             3    7     1      -0.5503866895E-03       4    5    1        -0.1990175198E-01      0.7860666575E-01
          0                 3           1             3    7     1       0.3770417207E-04       4    5    1         0.1396780567E-02      0.5462806251E-02

    ------------------------------------------------
       NWT REQUIRED            3 OUTER ITERATIONS 
       AND A TOTAL OF          5 INNER ITERATIONS.
    ------------------------------------------------

 NO OUTPUT CONTROL FOR STRESS PERIOD   41   TIME STEP   11
 
 SOLVING FOR HEAD 
                                                   Max.-Head-Change                         Max.-Flux-Residual
  Residual-Control   Outer-Iter.   Inner-Iter.     Column Row Layer    Maximum-Head-Change  Column Row Layer    Maximum-Flux-Residual          L2-NORM 
          0                 1           2             3    7     1       0.5690157958E-02       4    7    1         0.2346867166E+00      0.9198197822E+00
          0                 2           2             3    7     1      -0.5475986631E-03       4    5    1        -0.1985367322E-01      0.7826354303E-01
          0                 3           1             3    7     1       0.3751348406E-04       4    5    1         0.1393401911E-02      0.5422176014E-02

    ------------------------------------------------
       NWT REQUIRED            3 OUTER ITERATIONS 
       AND A TOTAL OF          5 INNER ITERATIONS.
    ------------------------------------------------

 NO OUTPUT CONTROL FOR STRESS PERIOD   41   TIME STEP   12
 
 SOLVING FOR HEAD 
                                                   Max.-Head-Change                         Max.-Flux-Residual
  Residual-Control   Outer-Iter.   Inner-Iter.     Column Row Layer    Maximum-Head-Change  Column Row Layer    Maximum-Flux-Residual          L2-NORM 
          0                 1           2             3    7     1       0.5661655045E-02       4    7    1         0.2338226271E+00      0.9149537765E+00
          0                 2           2             3    7     1      -0.5448478621E-03       4    5    1        -0.1980510314E-01      0.7817006385E-01
          0                 3           1             3    7     1       0.3732533224E-04       4    5    1         0.1389988916E-02      0.5416289704E-02

    ------------------------------------------------
       NWT REQUIRED            3 OUTER ITERATIONS 
       AND A TOTAL OF          5 INNER ITERATIONS.
    ------------------------------------------------

 NO OUTPUT CONTROL FOR STRESS PERIOD   41   TIME STEP   13
 
 SOLVING FOR HEAD 
                                                   Max.-Head-Change                         Max.-Flux-Residual
  Residual-Control   Outer-Iter.   Inner-Iter.     Column Row Layer    Maximum-Head-Change  Column Row Layer    Maximum-Flux-Residual          L2-NORM 
          0                 1           2             3    7     1       0.5633284746E-02       4    7    1         0.2329606213E+00      0.9105042435E+00
          0                 2           2             3    7     1      -0.5421099109E-03       4    5    1        -0.1975536152E-01      0.7773459108E-01
          0                 3           1             3    7     1       0.3713805883E-04       4    5    1         0.1386493856E-02      0.5376939656E-02

    ------------------------------------------------
       NWT REQUIRED            3 OUTER ITERATIONS 
       AND A TOTAL OF          5 INNER ITERATIONS.
    ------------------------------------------------

 NO OUTPUT CONTROL FOR STRESS PERIOD   41   TIME STEP   14
 
 SOLVING FOR HEAD 
                                                   Max.-Head-Change                         Max.-Flux-Residual
  Residual-Control   Outer-Iter.   Inner-Iter.     Column Row Layer    Maximum-Head-Change  Column Row Layer    Maximum-Flux-Residual          L2-NORM 
          0                 1           2             3    7     1       0.5605285566E-02       4    7    1         0.2320933465E+00      0.9071657523E+00
          0                 2           2             3    7     1      -0.5394081762E-03       4    5    1        -0.1970601091E-01      0.7729164105E-01
          0                 3           1             3    7     1       0.3695325038E-04       4    5    1         0.1383026221E-02      0.5311546851E-02

    ------------------------------------------------
       NWT REQUIRED            3 OUTER ITERATIONS 
       AND A TOTAL OF          5 INNER ITERATIONS.
    ------------------------------------------------

 NO OUTPUT CONTROL FOR STRESS PERIOD   41   TIME STEP   15
 
 SOLVING FOR HEAD 
                                                   Max.-Head-Change                         Max.-Flux-Residual
  Residual-Control   Outer-Iter.   Inner-Iter.     Column Row Layer    Maximum-Head-Change  Column Row Layer    Maximum-Flux-Residual          L2-NORM 
          0                 1           2             3    7     1       0.5577650893E-02       4    7    1         0.2312285659E+00      0.9041527467E+00
          0                 2           2             3    7     1      -0.5367418220E-03       4    5    1        -0.1965560760E-01      0.7692818862E-01
          0                 3           1             3    7     1       0.3677085386E-04       4    5    1         0.1379484973E-02      0.5260416148E-02

    ------------------------------------------------
       NWT REQUIRED            3 OUTER ITERATIONS 
       AND A TOTAL OF          5 INNER ITERATIONS.
    ------------------------------------------------

 NO OUTPUT CONTROL FOR STRESS PERIOD   41   TIME STEP   16
 
 SOLVING FOR HEAD 
                                                   Max.-Head-Change                         Max.-Flux-Residual
  Residual-Control   Outer-Iter.   Inner-Iter.     Column Row Layer    Maximum-Head-Change  Column Row Layer    Maximum-Flux-Residual          L2-NORM 
          0                 1           2             3    7     1       0.5550129966E-02       4    7    1         0.2303592751E+00      0.9011788727E+00
          0                 2           2             3    7     1      -0.5340866274E-03       4    5    1        -0.1960497406E-01      0.7671173880E-01
          0                 3           1             3    7     1       0.3658921387E-04       4    5    1         0.1375927646E-02      0.5246897574E-02

    ------------------------------------------------
       NWT REQUIRED            3 OUTER ITERATIONS 
       AND A TOTAL OF          5 INNER ITERATIONS.
    ------------------------------------------------

 NO OUTPUT CONTROL FOR STRESS PERIOD   41   TIME STEP   17
 
 SOLVING FOR HEAD 
                                                   Max.-Head-Change                         Max.-Flux-Residual
  Residual-Control   Outer-Iter.   Inner-Iter.     Column Row Layer    Maximum-Head-Change  Column Row Layer    Maximum-Flux-Residual          L2-NORM 
          0                 1           2             3    7     1       0.5522964972E-02       4    7    1         0.2295005985E+00      0.8977054840E+00
          0                 2           2             3    7     1      -0.5314658096E-03       4    5    1        -0.1955415670E-01      0.7644619095E-01
          0                 3           1             3    7     1       0.3640992286E-04       4    5    1         0.1372357447E-02      0.5223533589E-02

    ------------------------------------------------
       NWT REQUIRED            3 OUTER ITERATIONS 
       AND A TOTAL OF          5 INNER ITERATIONS.
    ------------------------------------------------

 NO OUTPUT CONTROL FOR STRESS PERIOD   41   TIME STEP   18
 
 SOLVING FOR HEAD 
                                                   Max.-Head-Change                         Max.-Flux-Residual
  Residual-Control   Outer-Iter.   Inner-Iter.     Column Row Layer    Maximum-Head-Change  Column Row Layer    Maximum-Flux-Residual          L2-NORM 
          0                 1           2             3    7     1       0.5495903384E-02       4    7    1         0.2286373860E+00      0.8943698321E+00
          0                 2           2             3    7     1      -0.5288551415E-03       4    5    1        -0.1950319141E-01      0.7620898953E-01
          0                 3           1             3    7     1       0.3623132081E-04       4    5    1         0.1368776903E-02      0.5204550405E-02

    ------------------------------------------------
       NWT REQUIRED            3 OUTER ITERATIONS 
       AND A TOTAL OF          5 INNER ITERATIONS.
    ------------------------------------------------

 NO OUTPUT CONTROL FOR STRESS PERIOD   41   TIME STEP   19
 
 SOLVING FOR HEAD 
                                                   Max.-Head-Change                         Max.-Flux-Residual
  Residual-Control   Outer-Iter.   Inner-Iter.     Column Row Layer    Maximum-Head-Change  Column Row Layer    Maximum-Flux-Residual          L2-NORM 
          0                 1           2             3    7     1       0.5469187944E-02       4    7    1         0.2277775424E+00      0.8911612360E+00
          0                 2           2             3    7     1      -0.5262780518E-03       4    5    1        -0.1945213205E-01      0.7602913848E-01
          0                 3           1             3    7     1       0.3605500940E-04       4    5    1         0.1365189884E-02      0.5193610143E-02

    ------------------------------------------------
       NWT REQUIRED            3 OUTER ITERATIONS 
       AND A TOTAL OF          5 INNER ITERATIONS.
    ------------------------------------------------

 NO OUTPUT CONTROL FOR STRESS PERIOD   41   TIME STEP   20
 
 SOLVING FOR HEAD 
                                                   Max.-Head-Change                         Max.-Flux-Residual
  Residual-Control   Outer-Iter.   Inner-Iter.     Column Row Layer    Maximum-Head-Change  Column Row Layer    Maximum-Flux-Residual          L2-NORM 
          0                 1           2             3    7     1       0.5442810545E-02       4    7    1         0.2269139137E+00      0.8880694923E+00
          0                 2           2             3    7     1      -0.5237339340E-03       4    5    1        -0.1940099495E-01      0.7581836960E-01
          0                 3           1             3    7     1       0.3588093976E-04       4    5    1         0.1361597376E-02      0.5176968399E-02

    ------------------------------------------------
       NWT REQUIRED            3 OUTER ITERATIONS 
       AND A TOTAL OF          5 INNER ITERATIONS.
    ------------------------------------------------

 NO OUTPUT CONTROL FOR STRESS PERIOD   41   TIME STEP   21
 
 SOLVING FOR HEAD 
                                                   Max.-Head-Change                         Max.-Flux-Residual
  Residual-Control   Outer-Iter.   Inner-Iter.     Column Row Layer    Maximum-Head-Change  Column Row Layer    Maximum-Flux-Residual          L2-NORM 
          0                 1           2             3    7     1       0.5416523013E-02       4    7    1         0.2260613950E+00      0.8851352915E+00
          0                 2           2             3    7     1      -0.5211982778E-03       4    5    1        -0.1934907428E-01      0.7558964213E-01
          0                 3           1             3    7     1       0.3570745754E-04       4    5    1         0.1357950178E-02      0.5158859291E-02

    ------------------------------------------------
       NWT REQUIRED            3 OUTER ITERATIONS 
       AND A TOTAL OF          5 INNER ITERATIONS.
    ------------------------------------------------

 NO OUTPUT CONTROL FOR STRESS PERIOD   41   TIME STEP   22
 
 SOLVING FOR HEAD 
                                                   Max.-Head-Change                         Max.-Flux-Residual
  Residual-Control   Outer-Iter.   Inner-Iter.     Column Row Layer    Maximum-Head-Change  Column Row Layer    Maximum-Flux-Residual          L2-NORM 
          0                 1           2             3    7     1       0.5390566599E-02       4    7    1         0.2252052568E+00      0.8823687427E+00
          0                 2           2             3    7     1      -0.5186949106E-03       4    5    1        -0.1929792586E-01      0.7537388238E-01
          0                 3           1             3    7     1       0.3553617141E-04       4    5    1         0.1354356992E-02      0.5142105159E-02

    ------------------------------------------------
       NWT REQUIRED            3 OUTER ITERATIONS 
       AND A TOTAL OF          5 INNER ITERATIONS.
    ------------------------------------------------

 NO OUTPUT CONTROL FOR STRESS PERIOD   41   TIME STEP   23
 
 SOLVING FOR HEAD 
                                                   Max.-Head-Change                         Max.-Flux-Residual
  Residual-Control   Outer-Iter.   Inner-Iter.     Column Row Layer    Maximum-Head-Change  Column Row Layer    Maximum-Flux-Residual          L2-NORM 
          0                 1           2             3    7     1       0.5364690823E-02       4    7    1         0.2243458152E+00      0.8796853321E+00
          0                 2           2             3    7     1      -0.5161994606E-03       4    5    1        -0.1924604353E-01      0.7516733346E-01
          0                 3           1             3    7     1       0.3536542194E-04       4    5    1         0.1350712415E-02      0.5126674759E-02

    ------------------------------------------------
       NWT REQUIRED            3 OUTER ITERATIONS 
       AND A TOTAL OF          5 INNER ITERATIONS.
    ------------------------------------------------

 NO OUTPUT CONTROL FOR STRESS PERIOD   41   TIME STEP   24
 
 SOLVING FOR HEAD 
                                                   Max.-Head-Change                         Max.-Flux-Residual
  Residual-Control   Outer-Iter.   Inner-Iter.     Column Row Layer    Maximum-Head-Change  Column Row Layer    Maximum-Flux-Residual          L2-NORM 
          0                 1           2             3    7     1       0.5339138724E-02       4    7    1         0.2234979811E+00      0.8770745822E+00
          0                 2           2             3    7     1      -0.5137352092E-03       4    5    1        -0.1919423347E-01      0.7496818758E-01
          0                 3           1             3    7     1       0.3519680833E-04       4    5    1         0.1347073082E-02      0.5112034647E-02

    ------------------------------------------------
       NWT REQUIRED            3 OUTER ITERATIONS 
       AND A TOTAL OF          5 INNER ITERATIONS.
    ------------------------------------------------

 NO OUTPUT CONTROL FOR STRESS PERIOD   41   TIME STEP   25
 
 SOLVING FOR HEAD 
                                                   Max.-Head-Change                         Max.-Flux-Residual
  Residual-Control   Outer-Iter.   Inner-Iter.     Column Row Layer    Maximum-Head-Change  Column Row Layer    Maximum-Flux-Residual          L2-NORM 
          0                 1           2             3    7     1       0.5313903623E-02       4    7    1         0.2226469595E+00      0.8745210263E+00
          0                 2           2             3    7     1      -0.5113018634E-03       4    5    1        -0.1914251981E-01      0.7477558681E-01
          0                 3           1             3    7     1       0.3503029673E-04       4    5    1         0.1343440458E-02      0.5098166274E-02

    ------------------------------------------------
       NWT REQUIRED            3 OUTER ITERATIONS 
       AND A TOTAL OF          5 INNER ITERATIONS.
    ------------------------------------------------

 NO OUTPUT CONTROL FOR STRESS PERIOD   41   TIME STEP   26
 
 SOLVING FOR HEAD 
                                                   Max.-Head-Change                         Max.-Flux-Residual
  Residual-Control   Outer-Iter.   Inner-Iter.     Column Row Layer    Maximum-Head-Change  Column Row Layer    Maximum-Flux-Residual          L2-NORM 
          0                 1           2             3    7     1       0.5288735261E-02       4    7    1         0.2218003732E+00      0.8709752666E+00
          0                 2           2             3    7     1      -0.5088749163E-03       4    5    1        -0.1909018038E-01      0.7446382498E-01
          0                 3           1             3    7     1       0.3486422262E-04       4    5    1         0.1339764074E-02      0.5093979249E-02

    ------------------------------------------------
       NWT REQUIRED            3 OUTER ITERATIONS 
       AND A TOTAL OF          5 INNER ITERATIONS.
    ------------------------------------------------

 NO OUTPUT CONTROL FOR STRESS PERIOD   41   TIME STEP   27
 
 SOLVING FOR HEAD 
                                                   Max.-Head-Change                         Max.-Flux-Residual
  Residual-Control   Outer-Iter.   Inner-Iter.     Column Row Layer    Maximum-Head-Change  Column Row Layer    Maximum-Flux-Residual          L2-NORM 
          0                 1           2             3    7     1       0.5263876296E-02       4    7    1         0.2209504272E+00      0.8779452300E+00
          0                 2           2             3    7     1      -0.5064781994E-03       4    5    1        -0.1903851061E-01      0.7443665743E-01
          0                 3           1             3    7     1       0.3470020071E-04       4    5    1         0.1336134507E-02      0.5123586151E-02

    ------------------------------------------------
       NWT REQUIRED            3 OUTER ITERATIONS 
       AND A TOTAL OF          5 INNER ITERATIONS.
    ------------------------------------------------

 NO OUTPUT CONTROL FOR STRESS PERIOD   41   TIME STEP   28
 
 SOLVING FOR HEAD 
                                                   Max.-Head-Change                         Max.-Flux-Residual
  Residual-Control   Outer-Iter.   Inner-Iter.     Column Row Layer    Maximum-Head-Change  Column Row Layer    Maximum-Flux-Residual          L2-NORM 
          0                 1           2             3    7     1       0.5239078439E-02       4    7    1         0.2201107173E+00      0.8733968356E+00
          0                 2           2             3    7     1      -0.5040871786E-03       4    5    1        -0.1898615585E-01      0.7445000392E-01
          0                 3           1             3    7     1       0.3453657144E-04       4    5    1         0.1332457056E-02      0.5095650413E-02

    ------------------------------------------------
       NWT REQUIRED            3 OUTER ITERATIONS 
       AND A TOTAL OF          5 INNER ITERATIONS.
    ------------------------------------------------

 NO OUTPUT CONTROL FOR STRESS PERIOD   41   TIME STEP   29
 
 SOLVING FOR HEAD 
                                                   Max.-Head-Change                         Max.-Flux-Residual
  Residual-Control   Outer-Iter.   Inner-Iter.     Column Row Layer    Maximum-Head-Change  Column Row Layer    Maximum-Flux-Residual          L2-NORM 
          0                 1           2             3    7     1       0.5214583191E-02       4    7    1         0.2192663238E+00      0.8689047334E+00
          0                 2           2             3    7     1      -0.5017256930E-03       4    5    1        -0.1893247655E-01      0.7379198425E-01
          0                 3           1             3    7     1       0.3437495400E-04       4    5    1         0.1328686858E-02      0.5021485696E-02

    ------------------------------------------------
       NWT REQUIRED            3 OUTER ITERATIONS 
       AND A TOTAL OF          5 INNER ITERATIONS.
    ------------------------------------------------

 NO OUTPUT CONTROL FOR STRESS PERIOD   41   TIME STEP   30



 STREAM LISTING     PERIOD     41   STEP       30

 LAYER ROW COL. STREAM  RCH.  FLOW INTO     FLOW TO   FLOW OUT OF   OVRLND.     DIRECT     STREAM       STREAM     STREAM     STREAM   STREAMBED  STREAMBED
                SEG.NO.  NO.  STRM. RCH.    AQUIFER    STRM. RCH.    RUNOFF     PRECIP       ET          HEAD       DEPTH      WIDTH   CONDCTNC.   GRADIENT

   1    1    1     1     1    2.3624E+01  2.3872E-01   2.3386E+01  0.000E+00  0.000E+00  0.000E+00  1.09421E+03  1.157E+00  1.276E+01  5.742E-02  1.386E+00
   1    2    2     1     2    2.3386E+01  3.6908E-01   2.3016E+01  0.000E+00  0.000E+00  0.000E+00  1.08921E+03  1.153E+00  1.270E+01  8.888E-02  1.384E+00
   1    3    3     1     3    2.3016E+01  3.1417E-01   2.2702E+01  0.000E+00  0.000E+00  0.000E+00  1.08357E+03  1.147E+00  1.263E+01  7.575E-02  1.382E+00
   1    3    4     1     4    2.2702E+01  2.8881E-01   2.2414E+01  0.000E+00  0.000E+00  0.000E+00  1.07855E+03  1.143E+00  1.256E+01  6.972E-02  1.381E+00
   1    4    5     2     1    2.0414E+01  3.1702E-01   2.0096E+01  0.000E+00  0.000E+00  0.000E+00  1.07300E+03  1.064E+00  1.200E+01  7.800E-02  1.355E+00
   1    5    6     2     2    2.0096E+01  2.4333E-01   1.9853E+01  0.000E+00  0.000E+00  0.000E+00  1.06756E+03  1.055E+00  1.200E+01  6.000E-02  1.352E+00
   1    6    6     2     3    1.9853E+01  2.4286E-01   1.9610E+01  0.000E+00  0.000E+00  0.000E+00  1.06284E+03  1.048E+00  1.200E+01  6.000E-02  1.349E+00
   1    7    6     2     4    1.9610E+01  2.4240E-01   1.9368E+01  0.000E+00  0.000E+00  0.000E+00  1.05812E+03  1.040E+00  1.200E+01  6.000E-02  1.347E+00
   1    8    6     2     5    1.9368E+01  2.4193E-01   1.9126E+01  0.000E+00  0.000E+00  0.000E+00  1.05339E+03  1.032E+00  1.200E+01  6.000E-02  1.344E+00
   1    3    5     3     1    2.0000E+00  2.8252E-01   1.7175E+00  0.000E+00  0.000E+00  0.000E+00  1.07555E+03  1.909E+00  9.636E+00  7.227E-02  1.955E+00
   1    3    6     3     2    1.7175E+00  2.4905E-01   1.4684E+00  0.000E+00  0.000E+00  0.000E+00  1.07264E+03  1.727E+00  8.909E+00  6.682E-02  1.864E+00
   1    3    7     3     3    1.4684E+00  1.9718E-01   1.2712E+00  0.000E+00  0.000E+00  0.000E+00  1.06987E+03  1.555E+00  8.218E+00  5.547E-02  1.777E+00
   1    4    8     3     4    1.2712E+00  2.2567E-01   1.0456E+00  0.000E+00  0.000E+00  0.000E+00  1.06682E+03  1.364E+00  7.455E+00  6.709E-02  1.682E+00
   1    5    8     3     5    1.0456E+00  1.5790E-01   8.8768E-01  0.000E+00  0.000E+00  0.000E+00  1.06362E+03  1.164E+00  6.655E+00  4.991E-02  1.582E+00
   1    6    8     3     6    8.8768E-01  5.5980E-02   8.3170E-01  0.000E+00  0.000E+00  0.000E+00  1.06158E+03  1.036E+00  6.145E+00  1.844E-02  1.518E+00
   1    5   10     4     1    1.0000E+01  9.0919E-02   9.9091E+00  0.000E+00  0.000E+00  0.000E+00  1.07836E+03  6.368E-01  1.000E+01  2.500E-02  1.212E+00
   1    5    9     4     2    9.9091E+00  1.8158E-01   9.7275E+00  0.000E+00  0.000E+00  0.000E+00  1.07154E+03  6.315E-01  1.000E+01  5.000E-02  1.211E+00
   1    6    8     4     3    9.7275E+00  1.2689E-01   9.6006E+00  0.000E+00  0.000E+00  0.000E+00  1.06381E+03  6.256E-01  1.000E+01  3.500E-02  1.209E+00
   1    6    8     5     1    1.0432E+01  2.2686E-01   1.0205E+01  0.000E+00  0.000E+00  0.000E+00  1.05868E+03  6.790E-01  1.542E+01  6.166E-02  1.226E+00
   1    7    7     5     2    1.0205E+01  2.7894E-01   9.9265E+00  0.000E+00  0.000E+00  0.000E+00  1.05417E+03  6.732E-01  1.519E+01  7.594E-02  1.224E+00
   1    8    7     5     3    9.9265E+00  1.9221E-01   9.7343E+00  0.000E+00  0.000E+00  0.000E+00  1.04992E+03  6.676E-01  1.497E+01  5.241E-02  1.223E+00
   1    8    6     5     4    9.7343E+00  1.3577E-01   9.5985E+00  0.000E+00  0.000E+00  0.000E+00  1.04691E+03  6.637E-01  1.482E+01  3.706E-02  1.221E+00
   1    9    6     6     1    2.8725E+01  2.5941E-01   2.8465E+01  0.000E+00  0.000E+00  0.000E+00  1.04405E+03  1.324E+00  1.200E+01  6.000E-02  1.441E+00
   1   10    7     6     2    2.8465E+01  2.5898E-01   2.8206E+01  0.000E+00  0.000E+00  0.000E+00  1.03950E+03  1.316E+00  1.200E+01  6.000E-02  1.439E+00
   1   11    7     6     3    2.8206E+01  2.5855E-01   2.7948E+01  0.000E+00  0.000E+00  0.000E+00  1.03495E+03  1.309E+00  1.200E+01  6.000E-02  1.436E+00
   1   12    7     6     4    2.7948E+01  2.5811E-01   2.7689E+01  0.000E+00  0.000E+00  0.000E+00  1.03039E+03  1.302E+00  1.200E+01  6.000E-02  1.434E+00
   1   13    7     6     5    2.7689E+01  1.6436E-02   2.7673E+01  0.000E+00  0.000E+00  0.000E+00  1.02721E+03  1.298E+00  1.200E+01  2.400E-02  2.283E-01
   1   14    9     7     1    1.5000E+02  1.3965E+00   1.4860E+02  0.000E+00  0.000E+00  0.000E+00  1.03987E+03  2.288E+00  5.529E+01  5.593E-01  8.323E-01
   1   13    8     7     2    1.4860E+02  2.0199E+00   1.4658E+02  0.000E+00  0.000E+00  0.000E+00  1.03478E+03  2.278E+00  5.525E+01  6.147E-01  1.095E+00
   1   13    7     7     3    1.4658E+02  1.7674E+00   1.4482E+02  0.000E+00  0.000E+00  0.000E+00  1.02969E+03  2.268E+00  5.521E+01  5.583E-01  1.055E+00
   1   13    6     8     1    1.7249E+02  1.2068E+00   1.7128E+02  0.000E+00  0.000E+00  0.000E+00  1.02484E+03  2.964E+00  4.298E+01  4.380E-01  9.183E-01
   1   13    5     8     2    1.7128E+02  4.2173E-01   1.7086E+02  0.000E+00  0.000E+00  0.000E+00  1.01858E+03  2.959E+00  4.291E+01  4.372E-01  3.215E-01
   1   13    4     8     3    1.7086E+02 -1.7087E+00   1.7257E+02  0.000E+00  0.000E+00  0.000E+00  1.01234E+03  2.963E+00  4.297E+01  4.379E+00 -1.301E-01
   1   13    3     8     4    1.7257E+02 -3.3232E+00   1.7589E+02  0.000E+00  0.000E+00  0.000E+00  1.00610E+03  2.980E+00  4.320E+01  4.403E+00 -2.516E-01
   1   13    2     8     5    1.7589E+02 -2.5527E+00   1.7845E+02  0.000E+00  0.000E+00  0.000E+00  9.99873E+02  2.998E+00  4.348E+01  4.430E+00 -1.921E-01
   1   13    1     8     6    1.7845E+02 -2.0045E+00   1.8045E+02  0.000E+00  0.000E+00  0.000E+00  9.94888E+02  3.013E+00  4.368E+01  2.671E+00 -2.502E-01
   1    8    6     9     1    0.0000E+00  0.0000E+00   0.0000E+00  0.000E+00  0.000E+00  0.000E+00  1.07875E+03  0.000E+00  4.000E+00  0.000E+00  1.000E+00
   1    8    5     9     2    0.0000E+00  0.0000E+00   0.0000E+00  0.000E+00  0.000E+00  0.000E+00  1.07825E+03  0.000E+00  4.000E+00  0.000E+00  1.000E+00





UNSATURATED ZONE PACKAGE VOLUMETRIC BUDGET FOR  TIME STEP    30 STRESS PERIOD   41
  ------------------------------------------------------------------------------



     CUMULATIVE VOLUMES      L**3       RATES FOR THIS TIME STEP      L**3/T
     ------------------                 ------------------------

           IN:                                      IN:
           ---                                      ---
        INFILTRATION =  1906065904.2131          INFILTRATION =           4.4075

          OUT:                                     OUT:
          ----                                     ----
              UZF ET =  1524698183.6334                UZF ET =           4.4075
        UZF RECHARGE =    64854390.9117          UZF RECHARGE =           0.1768

            IN - OUT =   316513329.6680              IN - OUT =          -0.1768

          STORAGE:                                 STORAGE:
          --------                                 --------
      STORAGE CHANGE =   316513299.1011        STORAGE CHANGE =          -0.1768

 PERCENT DISCREPANCY IS DIFFERENCE BETWEEN IN-OUT MINUS CHANGE IN STORAGE
 DIVIDED BY THE AVERAGE OF IN AND OUT TIMES 100

 PERCENT DISCREPANCY =           0.00     PERCENT DISCREPANCY =           0.00






1
  VOLUMETRIC BUDGET FOR AGRICULTURAL FIELDS AT  END OF TIME STEP   30, STRESS PERIOD  41
  ------------------------------------------------------------------------------

     CUMULATIVE VOLUMES      L**3       RATES FOR THIS TIME STEP      L**3/T
     ------------------                 ------------------------

           IN:                                      IN:
           ---                                      ---
               AG WELLS  =   871999872.0000                 AG WELLS  =           0.0000
      DIVERSION SEGMENTS =   570691712.0000        DIVERSION SEGMENTS =           0.0000
           GW IRRIGATION =           0.0000             GW IRRIGATION =           0.0000
           SW IRRIGATION =           0.0000             SW IRRIGATION =           0.0000
        SYSTEM LOSSES GW =           0.0000          SYSTEM LOSSES GW =           0.0000
        SYSTEM LOSSES SW =           0.0000          SYSTEM LOSSES SW =           0.0000

                TOTAL IN =  1442691584.0000                  TOTAL IN =           0.0000

          OUT:                                     OUT:
          ----                                     ----
               AG WELLS  =           0.0000                 AG WELLS  =           0.0000
      DIVERSION SEGMENTS =           0.0000        DIVERSION SEGMENTS =           0.0000
           GW IRRIGATION =   871999872.0000             GW IRRIGATION =           0.0000
           SW IRRIGATION =   570702976.0000             SW IRRIGATION =           0.0000
        SYSTEM LOSSES GW =           0.0000          SYSTEM LOSSES GW =           0.0000
        SYSTEM LOSSES SW =           0.0000          SYSTEM LOSSES SW =           0.0000

               TOTAL OUT =  1442702848.0000                 TOTAL OUT =           0.0000

                IN - OUT =      -11264.0000                  IN - OUT =           0.0000

     PERCENT DISCREPANCY =          -0.00         PERCENT DISCREPANCY =           0.00



1
  VOLUMETRIC BUDGET FOR ENTIRE MODEL AT END OF TIME STEP   30, STRESS PERIOD  41
  ------------------------------------------------------------------------------

     CUMULATIVE VOLUMES      L**3       RATES FOR THIS TIME STEP      L**3/T
     ------------------                 ------------------------

           IN:                                      IN:
           ---                                      ---
             STORAGE     =  1326974592.0000               STORAGE     =           1.6736
       CONSTANT HEAD     =           0.0000         CONSTANT HEAD     =           0.0000
     HEAD DEP BOUNDS     =    30379834.0000       HEAD DEP BOUNDS     =           0.2899
      STREAM LEAKAGE     =  1257012864.0000        STREAM LEAKAGE     =          12.7635
        UZF RECHARGE     =    64854380.0000          UZF RECHARGE     =           0.1768
               GW ET     =           0.0000                 GW ET     =           0.0000
     SURFACE LEAKAGE     =           0.0000       SURFACE LEAKAGE     =           0.0000
           AG WELLS      =           0.0000             AG WELLS      =           0.0000

                TOTAL IN =  2679221504.0000                  TOTAL IN =          14.9038

          OUT:                                     OUT:
          ----                                     ----
             STORAGE     =   733162048.0000               STORAGE     =           5.0251
       CONSTANT HEAD     =           0.0000         CONSTANT HEAD     =           0.0000
     HEAD DEP BOUNDS     =    30309422.0000       HEAD DEP BOUNDS     =           0.2903
      STREAM LEAKAGE     =  1043758528.0000        STREAM LEAKAGE     =           9.5890
        UZF RECHARGE     =           0.0000          UZF RECHARGE     =           0.0000
               GW ET     =           0.0000                 GW ET     =           0.0000
     SURFACE LEAKAGE     =           0.0000       SURFACE LEAKAGE     =           0.0000
           AG WELLS      =   871999872.0000             AG WELLS      =           0.0000

               TOTAL OUT =  2679229952.0000                 TOTAL OUT =          14.9044

                IN - OUT =       -8448.0000                  IN - OUT =      -5.1308E-04

     PERCENT DISCREPANCY =          -0.00         PERCENT DISCREPANCY =          -0.00






         TIME SUMMARY AT END OF TIME STEP   30 IN STRESS PERIOD   41
                    SECONDS     MINUTES      HOURS       DAYS        YEARS
                    -----------------------------------------------------------
   TIME STEP LENGTH  87667.      1461.1      24.352      1.0147     2.77799E-03
 STRESS PERIOD TIME 2.63000E+06  43833.      730.56      30.440     8.33397E-02
         TOTAL TIME 1.05286E+08 1.75476E+06  29246.      1218.6      3.3363    
1
1
                            STRESS PERIOD NO.   42, LENGTH =   2630000.    
                            -----------------------------------------------

                              NUMBER OF TIME STEPS =    30

                               MULTIPLIER FOR DELT =     1.000

                            INITIAL TIME STEP SIZE =   87666.66    

 REUSING NON-PARAMETER GHB CELLS FROM LAST STRESS PERIOD

      2 GHB CELLS

 REUSING STREAM SEGMENT DATA FROM LAST STRESS PERIOD



            AREAL INFILTRATION RATE
 READING ON UNIT   19 WITH FORMAT: (10F4.0)            

            1           2           3           4           5           6           7           8           9          10
 ........................................................................................................................
   1   1.2000E-09   0.000       0.000       0.000       0.000       0.000       0.000       0.000       0.000       0.000    
   2   2.1000E-09  2.0000E-09  8.0000E-10  8.5000E-09   0.000       0.000       0.000       0.000       0.000       0.000    
   3   5.0000E-10  1.1000E-09  8.8000E-09  5.5000E-09   0.000       0.000       0.000       0.000       0.000       0.000    
   4   8.5000E-09  1.1000E-09  1.1000E-09  1.1000E-09  2.0000E-09   0.000       0.000       0.000       0.000       0.000    
   5   8.5000E-09  1.1000E-09  1.1000E-09  1.1000E-09  1.1000E-09   0.000       0.000       0.000       0.000       0.000    
   6   8.5000E-09  5.2000E-09  2.1000E-09  1.1000E-09  1.5000E-09   0.000       0.000       0.000       0.000       0.000    
   7   8.5000E-09  5.2000E-09  2.1000E-09  1.2000E-09  2.0000E-09   0.000       0.000       0.000       0.000       0.000    
   8   5.0000E-10  5.2000E-09  2.1000E-09  1.2000E-09  5.0000E-09   0.000       0.000       0.000       0.000       0.000    
   9   5.0000E-10  5.2000E-09  2.1000E-09  1.2000E-09  5.0000E-09   0.000       0.000       0.000       0.000       0.000    
  10   5.0000E-10  5.2000E-09  2.1000E-09  1.2000E-09  5.8000E-09   0.000       0.000       0.000       0.000       0.000    
  11   1.0000E-10  1.1000E-09  1.1000E-09  1.2000E-09  5.0000E-09   0.000       0.000       0.000       0.000       0.000    
  12   1.1000E-09  1.1000E-09  1.1000E-09  1.1000E-09  2.0000E-09   0.000       0.000       0.000       0.000       0.000    
  13   1.1000E-09  2.2000E-09  2.2000E-09  2.1000E-09  1.0000E-09   0.000       0.000       0.000       0.000       0.000    
  14   2.0000E-10  5.5000E-09  5.5000E-09  5.2000E-09  1.0000E-09   0.000       0.000       0.000       0.000       0.000    
  15    0.000      8.8000E-09  8.8000E-09   0.000       0.000       0.000       0.000       0.000       0.000       0.000    

                  ET RATE =  5.000000E-08

 USING ET EXTINCTION DEPTH FROM PREVIOUS STRESS PERIOD. CURRENT PERIOD IS:      42

 USING EXTINCTION WATER CONTENT FROM PREVIOUS STRESS PERIOD. CURRENT PERIOD IS:      42

 USING AIR ENTRY PRESSURE FROM PREVIOUS STRESS PERIOD. CURRENT PERIOD IS:      42

 USING ROOT PRESSURE HEAD FROM PREVIOUS STRESS PERIOD. CURRENT PERIOD IS:      42

 USING ROOT ACTIVITY FROM PREVIOUS STRESS PERIOD. CURRENT PERIOD IS:      42

 PROCESSING AG STRESS PERIOD DATA

 READING AG STRESS PERIOD DATA

 READING IRRIGATION SEGMENT

 READING IRRIGATION WELL

 READING SUPPLEMENTAL WELL

 END PROCESSING AG STRESS PERIOD DATA OPTIONS
 
 SOLVING FOR HEAD 
                                                   Max.-Head-Change                         Max.-Flux-Residual
  Residual-Control   Outer-Iter.   Inner-Iter.     Column Row Layer    Maximum-Head-Change  Column Row Layer    Maximum-Flux-Residual          L2-NORM 
          0                 1           2             3    7     1       0.5190383616E-02       4    7    1         0.2184177308E+00      0.8645195256E+00
          0                 2           2             4    7     1      -0.2218574886E-01       5    8    1        -0.1192582809E+01      0.2933273725E+01
          0                 3           2             4    7     1       0.2268722958E-01       5    8    1         0.1257405324E+01      0.3085320164E+01
          0                 4           2             5    8     1      -0.3660660383E-03       5    8    1        -0.2134337961E-01      0.5348475169E-01
          0                 5           1             5    8     1      -0.4136635373E-04       5    8    1        -0.2411019631E-02      0.5648003507E-02

    ------------------------------------------------
       NWT REQUIRED            5 OUTER ITERATIONS 
       AND A TOTAL OF          9 INNER ITERATIONS.
    ------------------------------------------------

 NO OUTPUT CONTROL FOR STRESS PERIOD   42   TIME STEP    1
 
 SOLVING FOR HEAD 
                                                   Max.-Head-Change                         Max.-Flux-Residual
  Residual-Control   Outer-Iter.   Inner-Iter.     Column Row Layer    Maximum-Head-Change  Column Row Layer    Maximum-Flux-Residual          L2-NORM 
          0                 1           2             3    7     1       0.5166548643E-02       4    7    1         0.2175788858E+00      0.8527802371E+00
          0                 2           2             3    7     1      -0.4970956558E-03       4    5    1        -0.1882436110E-01      0.7283240426E-01
          0                 3           1             3    7     1       0.3405805039E-04       4    5    1         0.1321093471E-02      0.4956963502E-02

    ------------------------------------------------
       NWT REQUIRED            3 OUTER ITERATIONS 
       AND A TOTAL OF          5 INNER ITERATIONS.
    ------------------------------------------------

 NO OUTPUT CONTROL FOR STRESS PERIOD   42   TIME STEP    2
 
 SOLVING FOR HEAD 
                                                   Max.-Head-Change                         Max.-Flux-Residual
  Residual-Control   Outer-Iter.   Inner-Iter.     Column Row Layer    Maximum-Head-Change  Column Row Layer    Maximum-Flux-Residual          L2-NORM 
          0                 1           2             3    7     1       0.5142678937E-02       4    7    1         0.2167371762E+00      0.8494341123E+00
          0                 2           2             4    7     1      -0.1889427677E-01       5    8    1        -0.1015816935E+01      0.2499037588E+01
          0                 3           2             4    7     1       0.1926419214E-01       5    8    1         0.1068420525E+01      0.2620933115E+01
          0                 4           2             5    8     1      -0.2530103307E-03       5    8    1        -0.1477191905E-01      0.3790930636E-01
          0                 5           1             5    8     1      -0.2854717374E-04       5    8    1        -0.1666144834E-02      0.3845115234E-02

    ------------------------------------------------
       NWT REQUIRED            5 OUTER ITERATIONS 
       AND A TOTAL OF          9 INNER ITERATIONS.
    ------------------------------------------------

 NO OUTPUT CONTROL FOR STRESS PERIOD   42   TIME STEP    3
 
 SOLVING FOR HEAD 
                                                   Max.-Head-Change                         Max.-Flux-Residual
  Residual-Control   Outer-Iter.   Inner-Iter.     Column Row Layer    Maximum-Head-Change  Column Row Layer    Maximum-Flux-Residual          L2-NORM 
          0                 1           2             3    7     1       0.5118907430E-02       4    7    1         0.2158991060E+00      0.8429271688E+00
          0                 2           2             3    7     1      -0.4933119379E-03       4    5    1        -0.1871416781E-01      0.6972336822E-01
          0                 3           1             4    7     1       0.4189807699E-04       4    7    1         0.2181082604E-02      0.7240376638E-02

    ------------------------------------------------
       NWT REQUIRED            3 OUTER ITERATIONS 
       AND A TOTAL OF          5 INNER ITERATIONS.
    ------------------------------------------------

 NO OUTPUT CONTROL FOR STRESS PERIOD   42   TIME STEP    4
 
 SOLVING FOR HEAD 
                                                   Max.-Head-Change                         Max.-Flux-Residual
  Residual-Control   Outer-Iter.   Inner-Iter.     Column Row Layer    Maximum-Head-Change  Column Row Layer    Maximum-Flux-Residual          L2-NORM 
          0                 1           2             3    7     1       0.5095083083E-02       4    7    1         0.2150796162E+00      0.8403806343E+00
          0                 2           2             4    7     1      -0.1906955541E-01       5    8    1        -0.1025222716E+01      0.2522680058E+01
          0                 3           2             4    7     1       0.1944965340E-01       5    8    1         0.1078627837E+01      0.2646037005E+01
          0                 4           2             5    8     1      -0.2624446360E-03       5    8    1        -0.1531987503E-01      0.3913742556E-01
          0                 5           1             5    8     1      -0.2961781390E-04       5    8    1        -0.1728308688E-02      0.3993562070E-02

    ------------------------------------------------
       NWT REQUIRED            5 OUTER ITERATIONS 
       AND A TOTAL OF          9 INNER ITERATIONS.
    ------------------------------------------------

 NO OUTPUT CONTROL FOR STRESS PERIOD   42   TIME STEP    5
 
 SOLVING FOR HEAD 
                                                   Max.-Head-Change                         Max.-Flux-Residual
  Residual-Control   Outer-Iter.   Inner-Iter.     Column Row Layer    Maximum-Head-Change  Column Row Layer    Maximum-Flux-Residual          L2-NORM 
          0                 1           2             3    7     1       0.5071883877E-02       4    7    1         0.2142505233E+00      0.8367005958E+00
          0                 2           2             4    7     1      -0.2062999018E-02       5    8    1        -0.1119178233E+00      0.2827677040E+00
          0                 3           2             4    7     1       0.1477947282E-02       5    6    1         0.8180027191E-01      0.2018991702E+00
          0                 4           2             4    7     1       0.2420567918E-03       4    7    1         0.1336761899E-01      0.3283207669E-01
          0                 5           1             4    7     1       0.9171714732E-04       4    7    1         0.5064333393E-02      0.1347891572E-01

    ------------------------------------------------
       NWT REQUIRED            5 OUTER ITERATIONS 
       AND A TOTAL OF          9 INNER ITERATIONS.
    ------------------------------------------------

 NO OUTPUT CONTROL FOR STRESS PERIOD   42   TIME STEP    6
 
 SOLVING FOR HEAD 
                                                   Max.-Head-Change                         Max.-Flux-Residual
  Residual-Control   Outer-Iter.   Inner-Iter.     Column Row Layer    Maximum-Head-Change  Column Row Layer    Maximum-Flux-Residual          L2-NORM 
          0                 1           2             3    7     1       0.5044326209E-02       4    7    1         0.2135480337E+00      0.8344699366E+00
          0                 2           2             4    7     1      -0.1755689429E-01       5    8    1        -0.9439666609E+00      0.2323278994E+01
          0                 3           2             4    7     1       0.1787789072E-01       5    8    1         0.9917634265E+00      0.2432873281E+01
          0                 4           2             5    8     1      -0.2107586653E-03       5    8    1        -0.1231426894E-01      0.3119982457E-01
          0                 5           1             5    8     1      -0.2376001723E-04       5    8    1        -0.1387789032E-02      0.3103362640E-02

    ------------------------------------------------
       NWT REQUIRED            5 OUTER ITERATIONS 
       AND A TOTAL OF          9 INNER ITERATIONS.
    ------------------------------------------------

 NO OUTPUT CONTROL FOR STRESS PERIOD   42   TIME STEP    7
 
 SOLVING FOR HEAD 
                                                   Max.-Head-Change                         Max.-Flux-Residual
  Residual-Control   Outer-Iter.   Inner-Iter.     Column Row Layer    Maximum-Head-Change  Column Row Layer    Maximum-Flux-Residual          L2-NORM 
          0                 1           2             3    7     1       0.5021770758E-02       4    7    1         0.2127312866E+00      0.8329566210E+00
          0                 2           2             4    7     1      -0.6690069244E-02       5    8    1        -0.3603842219E+00      0.8889103958E+00
          0                 3           2             4    7     1       0.6568094086E-02       5    8    1         0.3674075804E+00      0.8984354878E+00
          0                 4           2             4    7     1       0.2620692072E-03       4    7    1         0.1456621944E-01      0.3014858764E-01
          0                 5           1             4    7     1       0.2365072479E-04       4    7    1         0.1314843186E-02      0.2664705927E-02

    ------------------------------------------------
       NWT REQUIRED            5 OUTER ITERATIONS 
       AND A TOTAL OF          9 INNER ITERATIONS.
    ------------------------------------------------

 NO OUTPUT CONTROL FOR STRESS PERIOD   42   TIME STEP    8
 
 SOLVING FOR HEAD 
                                                   Max.-Head-Change                         Max.-Flux-Residual
  Residual-Control   Outer-Iter.   Inner-Iter.     Column Row Layer    Maximum-Head-Change  Column Row Layer    Maximum-Flux-Residual          L2-NORM 
          0                 1           2             3    7     1       0.4998944099E-02       4    7    1         0.2119121548E+00      0.8312027737E+00
          0                 2           2             4    7     1      -0.1548402279E-01       5    8    1        -0.8326432535E+00      0.2049894497E+01
          0                 3           2             4    7     1       0.1572321454E-01       5    8    1         0.8728002621E+00      0.2140776058E+01
          0                 4           2             5    8     1      -0.1407937381E-03       5    8    1        -0.8247541301E-02      0.2054020258E-01
          0                 5           1             5    8     1      -0.1582674601E-04       5    8    1        -0.9268200974E-03      0.1879943769E-02

    ------------------------------------------------
       NWT REQUIRED            5 OUTER ITERATIONS 
       AND A TOTAL OF          9 INNER ITERATIONS.
    ------------------------------------------------

 NO OUTPUT CONTROL FOR STRESS PERIOD   42   TIME STEP    9
 
 SOLVING FOR HEAD 
                                                   Max.-Head-Change                         Max.-Flux-Residual
  Residual-Control   Outer-Iter.   Inner-Iter.     Column Row Layer    Maximum-Head-Change  Column Row Layer    Maximum-Flux-Residual          L2-NORM 
          0                 1           2             3    7     1       0.4976666395E-02       4    7    1         0.2111029941E+00      0.8309564794E+00
          0                 2           2             4    7     1      -0.6836394507E-02       5    8    1        -0.3682375490E+00      0.9085708665E+00
          0                 3           2             4    7     1       0.6723367186E-02       5    8    1         0.3759611924E+00      0.9194584896E+00
          0                 4           2             4    7     1       0.2527743990E-03       4    7    1         0.1405253302E-01      0.2897647668E-01
          0                 5           1             4    7     1       0.2280524724E-04       4    7    1         0.1268089633E-02      0.2556465912E-02

    ------------------------------------------------
       NWT REQUIRED            5 OUTER ITERATIONS 
       AND A TOTAL OF          9 INNER ITERATIONS.
    ------------------------------------------------

 NO OUTPUT CONTROL FOR STRESS PERIOD   42   TIME STEP   10
 
 SOLVING FOR HEAD 
                                                   Max.-Head-Change                         Max.-Flux-Residual
  Residual-Control   Outer-Iter.   Inner-Iter.     Column Row Layer    Maximum-Head-Change  Column Row Layer    Maximum-Flux-Residual          L2-NORM 
          0                 1           2             3    7     1       0.4954368730E-02       4    7    1         0.2102909754E+00      0.8294445551E+00
          0                 2           2             4    7     1      -0.1538236916E-01       5    8    1        -0.8271788141E+00      0.2036825073E+01
          0                 3           2             4    7     1       0.1562035307E-01       5    8    1         0.8671011808E+00      0.2126782430E+01
          0                 4           2             5    8     1      -0.1405102852E-03       5    8    1        -0.8230857192E-02      0.2046516410E-01
          0                 5           1             5    8     1      -0.1579506016E-04       5    8    1        -0.9249551808E-03      0.1875678172E-02

    ------------------------------------------------
       NWT REQUIRED            5 OUTER ITERATIONS 
       AND A TOTAL OF          9 INNER ITERATIONS.
    ------------------------------------------------

 NO OUTPUT CONTROL FOR STRESS PERIOD   42   TIME STEP   11
 
 SOLVING FOR HEAD 
                                                   Max.-Head-Change                         Max.-Flux-Residual
  Residual-Control   Outer-Iter.   Inner-Iter.     Column Row Layer    Maximum-Head-Change  Column Row Layer    Maximum-Flux-Residual          L2-NORM 
          0                 1           2             3    7     1       0.4932363358E-02       4    7    1         0.2094817800E+00      0.8300215082E+00
          0                 2           2             4    7     1      -0.6895583667E-02       5    8    1        -0.3714098687E+00      0.9166978026E+00
          0                 3           2             4    7     1       0.6730455339E-02       5    8    1         0.3763282093E+00      0.9204329197E+00
          0                 4           2             4    7     1       0.2554293533E-03       4    7    1         0.1419823271E-01      0.2922078672E-01
          0                 5           1             4    7     1       0.3357282486E-04       4    7    1         0.1862432900E-02      0.4074459425E-02

    ------------------------------------------------
       NWT REQUIRED            5 OUTER ITERATIONS 
       AND A TOTAL OF          9 INNER ITERATIONS.
    ------------------------------------------------

 NO OUTPUT CONTROL FOR STRESS PERIOD   42   TIME STEP   12
 
 SOLVING FOR HEAD 
                                                   Max.-Head-Change                         Max.-Flux-Residual
  Residual-Control   Outer-Iter.   Inner-Iter.     Column Row Layer    Maximum-Head-Change  Column Row Layer    Maximum-Flux-Residual          L2-NORM 
          0                 1           2             3    7     1       0.4910186867E-02       4    7    1         0.2086865538E+00      0.8285418300E+00
          0                 2           2             4    7     1      -0.1530901869E-01       5    8    1        -0.8232314884E+00      0.2027439773E+01
          0                 3           2             4    7     1       0.1554691863E-01       5    8    1         0.8630144865E+00      0.2116777724E+01
          0                 4           2             5    8     1      -0.1409928553E-03       5    8    1        -0.8258514094E-02      0.2042502697E-01
          0                 5           1             5    8     1      -0.1585062256E-04       5    8    1        -0.9281396078E-03      0.1877580810E-02

    ------------------------------------------------
       NWT REQUIRED            5 OUTER ITERATIONS 
       AND A TOTAL OF          9 INNER ITERATIONS.
    ------------------------------------------------

 NO OUTPUT CONTROL FOR STRESS PERIOD   42   TIME STEP   13
 
 SOLVING FOR HEAD 
                                                   Max.-Head-Change                         Max.-Flux-Residual
  Residual-Control   Outer-Iter.   Inner-Iter.     Column Row Layer    Maximum-Head-Change  Column Row Layer    Maximum-Flux-Residual          L2-NORM 
          0                 1           2             3    7     1       0.4888450252E-02       4    7    1         0.2078792640E+00      0.8296366203E+00
          0                 2           2             4    7     1      -0.6943524357E-02       5    8    1        -0.3739757677E+00      0.9232943939E+00
          0                 3           2             4    7     1       0.6762469189E-02       5    8    1         0.3780611891E+00      0.9247554141E+00
          0                 4           2             4    7     1       0.2528171439E-03       4    7    1         0.1405308742E-01      0.2884499334E-01
          0                 5           1             4    7     1       0.3705699738E-04       4    7    1         0.2054683076E-02      0.4572713307E-02

    ------------------------------------------------
       NWT REQUIRED            5 OUTER ITERATIONS 
       AND A TOTAL OF          9 INNER ITERATIONS.
    ------------------------------------------------

 NO OUTPUT CONTROL FOR STRESS PERIOD   42   TIME STEP   14
 
 SOLVING FOR HEAD 
                                                   Max.-Head-Change                         Max.-Flux-Residual
  Residual-Control   Outer-Iter.   Inner-Iter.     Column Row Layer    Maximum-Head-Change  Column Row Layer    Maximum-Flux-Residual          L2-NORM 
          0                 1           2             3    7     1       0.4866394503E-02       4    7    1         0.2070923941E+00      0.8280359971E+00
          0                 2           2             4    7     1      -0.1519159706E-01       5    8    1        -0.8169161588E+00      0.2012185482E+01
          0                 3           2             4    7     1       0.1542759001E-01       5    8    1         0.8563890994E+00      0.2100566069E+01
          0                 4           2             5    8     1      -0.1398066898E-03       5    8    1        -0.8189118566E-02      0.1995147707E-01
          0                 5           1             5    8     1      -0.1571708785E-04       5    8    1        -0.9203301647E-03      0.1836929505E-02

    ------------------------------------------------
       NWT REQUIRED            5 OUTER ITERATIONS 
       AND A TOTAL OF          9 INNER ITERATIONS.
    ------------------------------------------------

 NO OUTPUT CONTROL FOR STRESS PERIOD   42   TIME STEP   15
 
 SOLVING FOR HEAD 
                                                   Max.-Head-Change                         Max.-Flux-Residual
  Residual-Control   Outer-Iter.   Inner-Iter.     Column Row Layer    Maximum-Head-Change  Column Row Layer    Maximum-Flux-Residual          L2-NORM 
          0                 1           2             3    7     1       0.4844921098E-02       4    7    1         0.2062954295E+00      0.8294204937E+00
          0                 2           2             4    7     1      -0.1112514305E-01       5    8    1        -0.5985315552E+00      0.1475308344E+01
          0                 3           2             4    7     1       0.1119626494E-01       5    8    1         0.6227867391E+00      0.1526321936E+01
          0                 4           1             4   13     1       0.9184819925E-04       4   13    1         0.5554291484E-02      0.1113021871E-01

    ------------------------------------------------
       NWT REQUIRED            4 OUTER ITERATIONS 
       AND A TOTAL OF          7 INNER ITERATIONS.
    ------------------------------------------------

 NO OUTPUT CONTROL FOR STRESS PERIOD   42   TIME STEP   16
 
 SOLVING FOR HEAD 
                                                   Max.-Head-Change                         Max.-Flux-Residual
  Residual-Control   Outer-Iter.   Inner-Iter.     Column Row Layer    Maximum-Head-Change  Column Row Layer    Maximum-Flux-Residual          L2-NORM 
          0                 1           2             3    7     1       0.4823602688E-02       4    7    1         0.2055075922E+00      0.8292442624E+00
          0                 2           2             4    7     1      -0.1137516991E-01       5    8    1        -0.6119549920E+00      0.1508424257E+01
          0                 3           2             4    7     1       0.1145795012E-01       5    8    1         0.6372184717E+00      0.1561809636E+01
          0                 4           1             4   13     1       0.9388108421E-04       4   13    1         0.5677099380E-02      0.1070037260E-01

    ------------------------------------------------
       NWT REQUIRED            4 OUTER ITERATIONS 
       AND A TOTAL OF          7 INNER ITERATIONS.
    ------------------------------------------------

 NO OUTPUT CONTROL FOR STRESS PERIOD   42   TIME STEP   17
 
 SOLVING FOR HEAD 
                                                   Max.-Head-Change                         Max.-Flux-Residual
  Residual-Control   Outer-Iter.   Inner-Iter.     Column Row Layer    Maximum-Head-Change  Column Row Layer    Maximum-Flux-Residual          L2-NORM 
          0                 1           2             3    7     1       0.4802538407E-02       4    7    1         0.2047236162E+00      0.8291482235E+00
          0                 2           2             4    7     1      -0.1127687014E-01       5    8    1        -0.6066723139E+00      0.1495543712E+01
          0                 3           2             4    7     1       0.1135705528E-01       5    8    1         0.6316345341E+00      0.1548092421E+01
          0                 4           1             4   13     1       0.9307639090E-04       4   13    1         0.5628495222E-02      0.1071992674E-01

    ------------------------------------------------
       NWT REQUIRED            4 OUTER ITERATIONS 
       AND A TOTAL OF          7 INNER ITERATIONS.
    ------------------------------------------------

 NO OUTPUT CONTROL FOR STRESS PERIOD   42   TIME STEP   18
 
 SOLVING FOR HEAD 
                                                   Max.-Head-Change                         Max.-Flux-Residual
  Residual-Control   Outer-Iter.   Inner-Iter.     Column Row Layer    Maximum-Head-Change  Column Row Layer    Maximum-Flux-Residual          L2-NORM 
          0                 1           2             3    7     1       0.4781711361E-02       4    7    1         0.2039438720E+00      0.8289807818E+00
          0                 2           2             4    7     1      -0.1120673196E-01       5    8    1        -0.6029014953E+00      0.1486371599E+01
          0                 3           2             4    7     1       0.1128546549E-01       5    8    1         0.6276662559E+00      0.1538349935E+01
          0                 4           1             4   13     1       0.9247664885E-04       4   13    1         0.5592263831E-02      0.1071121593E-01

    ------------------------------------------------
       NWT REQUIRED            4 OUTER ITERATIONS 
       AND A TOTAL OF          7 INNER ITERATIONS.
    ------------------------------------------------

 NO OUTPUT CONTROL FOR STRESS PERIOD   42   TIME STEP   19
 
 SOLVING FOR HEAD 
                                                   Max.-Head-Change                         Max.-Flux-Residual
  Residual-Control   Outer-Iter.   Inner-Iter.     Column Row Layer    Maximum-Head-Change  Column Row Layer    Maximum-Flux-Residual          L2-NORM 
          0                 1           2             3    7     1       0.4760875461E-02       4    7    1         0.2031686932E+00      0.8287372229E+00
          0                 2           2             4    7     1      -0.1116665019E-01       5    8    1        -0.6007448090E+00      0.1481159182E+01
          0                 3           2             4    7     1       0.1124515347E-01       5    8    1         0.6254247558E+00      0.1532852576E+01
          0                 4           1             4   13     1       0.9213617662E-04       4   13    1         0.5571702221E-02      0.1066887403E-01

    ------------------------------------------------
       NWT REQUIRED            4 OUTER ITERATIONS 
       AND A TOTAL OF          7 INNER ITERATIONS.
    ------------------------------------------------

 NO OUTPUT CONTROL FOR STRESS PERIOD   42   TIME STEP   20
 
 SOLVING FOR HEAD 
                                                   Max.-Head-Change                         Max.-Flux-Residual
  Residual-Control   Outer-Iter.   Inner-Iter.     Column Row Layer    Maximum-Head-Change  Column Row Layer    Maximum-Flux-Residual          L2-NORM 
          0                 1           2             3    7     1       0.4740275653E-02       4    7    1         0.2023904688E+00      0.8284229166E+00
          0                 2           2             4    7     1      -0.1115242446E-01       5    8    1        -0.5999759685E+00      0.1479352854E+01
          0                 3           2             4    7     1       0.1123175979E-01       5    8    1         0.6246663729E+00      0.1531004788E+01
          0                 4           1             4   13     1       0.9200058926E-04       4   13    1         0.5563517358E-02      0.1059368846E-01

    ------------------------------------------------
       NWT REQUIRED            4 OUTER ITERATIONS 
       AND A TOTAL OF          7 INNER ITERATIONS.
    ------------------------------------------------

 NO OUTPUT CONTROL FOR STRESS PERIOD   42   TIME STEP   21
 
 SOLVING FOR HEAD 
                                                   Max.-Head-Change                         Max.-Flux-Residual
  Residual-Control   Outer-Iter.   Inner-Iter.     Column Row Layer    Maximum-Head-Change  Column Row Layer    Maximum-Flux-Residual          L2-NORM 
          0                 1           2             3    7     1       0.4719908974E-02       4    7    1         0.2016169622E+00      0.8280524522E+00
          0                 2           2             4    7     1      -0.1114803423E-01       5    8    1        -0.5997354206E+00      0.1478839163E+01
          0                 3           2             4    7     1       0.1122859510E-01       5    8    1         0.6244730860E+00      0.1530546082E+01
          0                 4           1             4   13     1       0.9197964029E-04       4   13    1         0.5562252102E-02      0.1051650234E-01

    ------------------------------------------------
       NWT REQUIRED            4 OUTER ITERATIONS 
       AND A TOTAL OF          7 INNER ITERATIONS.
    ------------------------------------------------

 NO OUTPUT CONTROL FOR STRESS PERIOD   42   TIME STEP   22
 
 SOLVING FOR HEAD 
                                                   Max.-Head-Change                         Max.-Flux-Residual
  Residual-Control   Outer-Iter.   Inner-Iter.     Column Row Layer    Maximum-Head-Change  Column Row Layer    Maximum-Flux-Residual          L2-NORM 
          0                 1           2             3    7     1       0.4699528491E-02       4    7    1         0.2008482485E+00      0.8276248814E+00
          0                 2           2             4    7     1      -0.1114577610E-01       5    8    1        -0.5996094721E+00      0.1478601260E+01
          0                 3           2             4    7     1       0.1122764117E-01       5    8    1         0.6244022320E+00      0.1530387466E+01
          0                 4           1             4   13     1       0.9193996212E-04       4   13    1         0.5559869484E-02      0.1043994740E-01

    ------------------------------------------------
       NWT REQUIRED            4 OUTER ITERATIONS 
       AND A TOTAL OF          7 INNER ITERATIONS.
    ------------------------------------------------

 NO OUTPUT CONTROL FOR STRESS PERIOD   42   TIME STEP   23
 
 SOLVING FOR HEAD 
                                                   Max.-Head-Change                         Max.-Flux-Residual
  Residual-Control   Outer-Iter.   Inner-Iter.     Column Row Layer    Maximum-Head-Change  Column Row Layer    Maximum-Flux-Residual          L2-NORM 
          0                 1           2             3    7     1       0.4679378301E-02       4    7    1         0.2000842099E+00      0.8271419088E+00
          0                 2           2             4    7     1      -0.1114469324E-01       5    8    1        -0.5995462368E+00      0.1478513432E+01
          0                 3           2             4    7     1       0.1122790202E-01       5    8    1         0.6243967243E+00      0.1530392469E+01
          0                 4           1             4   13     1       0.9191570939E-04       4   13    1         0.5558414210E-02      0.1036406724E-01

    ------------------------------------------------
       NWT REQUIRED            4 OUTER ITERATIONS 
       AND A TOTAL OF          7 INNER ITERATIONS.
    ------------------------------------------------

 NO OUTPUT CONTROL FOR STRESS PERIOD   42   TIME STEP   24
 
 SOLVING FOR HEAD 
                                                   Max.-Head-Change                         Max.-Flux-Residual
  Residual-Control   Outer-Iter.   Inner-Iter.     Column Row Layer    Maximum-Head-Change  Column Row Layer    Maximum-Flux-Residual          L2-NORM 
          0                 1           2             3    7     1       0.4659453484E-02       4    7    1         0.1993175122E+00      0.8266019247E+00
          0                 2           2             4    7     1      -0.1114422629E-01       5    8    1        -0.5995159593E+00      0.1478501595E+01
          0                 3           2             4    7     1       0.1122880818E-01       5    8    1         0.6244264048E+00      0.1530484446E+01
          0                 4           1             4   13     1       0.9194329084E-04       4   13    1         0.5560076802E-02      0.1029669106E-01

    ------------------------------------------------
       NWT REQUIRED            4 OUTER ITERATIONS 
       AND A TOTAL OF          7 INNER ITERATIONS.
    ------------------------------------------------

 NO OUTPUT CONTROL FOR STRESS PERIOD   42   TIME STEP   25
 
 SOLVING FOR HEAD 
                                                   Max.-Head-Change                         Max.-Flux-Residual
  Residual-Control   Outer-Iter.   Inner-Iter.     Column Row Layer    Maximum-Head-Change  Column Row Layer    Maximum-Flux-Residual          L2-NORM 
          0                 1           2             3    7     1       0.4639749366E-02       4    7    1         0.1985558795E+00      0.8260112906E+00
          0                 2           2             4    7     1      -0.1117573150E-01       5    8    1        -0.6012023122E+00      0.1482706929E+01
          0                 3           2             4    7     1       0.1126298487E-01       5    8    1         0.6262912089E+00      0.1535092995E+01
          0                 4           1             4   13     1       0.9217405701E-04       4   13    1         0.5578636864E-02      0.1017205221E-01

    ------------------------------------------------
       NWT REQUIRED            4 OUTER ITERATIONS 
       AND A TOTAL OF          7 INNER ITERATIONS.
    ------------------------------------------------

 NO OUTPUT CONTROL FOR STRESS PERIOD   42   TIME STEP   26
 
 SOLVING FOR HEAD 
                                                   Max.-Head-Change                         Max.-Flux-Residual
  Residual-Control   Outer-Iter.   Inner-Iter.     Column Row Layer    Maximum-Head-Change  Column Row Layer    Maximum-Flux-Residual          L2-NORM 
          0                 1           2             3    7     1       0.4620022364E-02       4    7    1         0.1977992879E+00      0.8253909919E+00
          0                 2           2             4    7     1      -0.1116013586E-01       5    8    1        -0.6003593820E+00      0.1480689777E+01
          0                 3           2             4    7     1       0.1124812516E-01       5    8    1         0.6254497039E+00      0.1533044533E+01
          0                 4           1             4   13     1       0.9203882466E-04       4   13    1         0.5570470282E-02      0.1011971597E-01

    ------------------------------------------------
       NWT REQUIRED            4 OUTER ITERATIONS 
       AND A TOTAL OF          7 INNER ITERATIONS.
    ------------------------------------------------

 NO OUTPUT CONTROL FOR STRESS PERIOD   42   TIME STEP   27
 
 SOLVING FOR HEAD 
                                                   Max.-Head-Change                         Max.-Flux-Residual
  Residual-Control   Outer-Iter.   Inner-Iter.     Column Row Layer    Maximum-Head-Change  Column Row Layer    Maximum-Flux-Residual          L2-NORM 
          0                 1           2             3    7     1       0.4600514338E-02       4    7    1         0.1970477669E+00      0.8247049039E+00
          0                 2           2             4    7     1      -0.1115209037E-01       5    8    1        -0.5999220887E+00      0.1479665733E+01
          0                 3           2             4    7     1       0.1124111509E-01       5    8    1         0.6250421804E+00      0.1532061023E+01
          0                 4           1             4   13     1       0.9193799475E-04       4   13    1         0.5564370774E-02      0.1006429998E-01

    ------------------------------------------------
       NWT REQUIRED            4 OUTER ITERATIONS 
       AND A TOTAL OF          7 INNER ITERATIONS.
    ------------------------------------------------

 NO OUTPUT CONTROL FOR STRESS PERIOD   42   TIME STEP   28
 
 SOLVING FOR HEAD 
                                                   Max.-Head-Change                         Max.-Flux-Residual
  Residual-Control   Outer-Iter.   Inner-Iter.     Column Row Layer    Maximum-Head-Change  Column Row Layer    Maximum-Flux-Residual          L2-NORM 
          0                 1           2             3    7     1       0.4580977987E-02       4    7    1         0.1962939898E+00      0.8239729719E+00
          0                 2           2             4    7     1      -0.1114785121E-01       5    8    1        -0.5996885970E+00      0.1479139570E+01
          0                 3           2             4    7     1       0.1123807048E-01       5    8    1         0.6248511031E+00      0.1531613204E+01
          0                 4           1             4   13     1       0.9190046927E-04       4   13    1         0.5562110066E-02      0.1001251086E-01

    ------------------------------------------------
       NWT REQUIRED            4 OUTER ITERATIONS 
       AND A TOTAL OF          7 INNER ITERATIONS.
    ------------------------------------------------

 NO OUTPUT CONTROL FOR STRESS PERIOD   42   TIME STEP   29
 
 SOLVING FOR HEAD 
                                                   Max.-Head-Change                         Max.-Flux-Residual
  Residual-Control   Outer-Iter.   Inner-Iter.     Column Row Layer    Maximum-Head-Change  Column Row Layer    Maximum-Flux-Residual          L2-NORM 
          0                 1           2             3    7     1       0.4561902251E-02       4    7    1         0.1955530304E+00      0.8231925344E+00
          0                 2           2             4    7     1      -0.1114567513E-01       5    8    1        -0.5995663290E+00      0.1478883382E+01
          0                 3           2             4    7     1       0.1123715077E-01       5    8    1         0.6247790584E+00      0.1531456633E+01
          0                 4           1             4   13     1       0.9189422044E-04       4   13    1         0.5561739496E-02      0.9965615993E-02

    ------------------------------------------------
       NWT REQUIRED            4 OUTER ITERATIONS 
       AND A TOTAL OF          7 INNER ITERATIONS.
    ------------------------------------------------

 NO OUTPUT CONTROL FOR STRESS PERIOD   42   TIME STEP   30



 STREAM LISTING     PERIOD     42   STEP       30

 LAYER ROW COL. STREAM  RCH.  FLOW INTO     FLOW TO   FLOW OUT OF   OVRLND.     DIRECT     STREAM       STREAM     STREAM     STREAM   STREAMBED  STREAMBED
                SEG.NO.  NO.  STRM. RCH.    AQUIFER    STRM. RCH.    RUNOFF     PRECIP       ET          HEAD       DEPTH      WIDTH   CONDCTNC.   GRADIENT

   1    1    1     1     1    2.3624E+01  2.3872E-01   2.3386E+01  0.000E+00  0.000E+00  0.000E+00  1.09421E+03  1.157E+00  1.276E+01  5.742E-02  1.386E+00
   1    2    2     1     2    2.3386E+01  3.6908E-01   2.3016E+01  0.000E+00  0.000E+00  0.000E+00  1.08921E+03  1.153E+00  1.270E+01  8.888E-02  1.384E+00
   1    3    3     1     3    2.3016E+01  3.1417E-01   2.2702E+01  0.000E+00  0.000E+00  0.000E+00  1.08357E+03  1.147E+00  1.263E+01  7.575E-02  1.382E+00
   1    3    4     1     4    2.2702E+01  2.8881E-01   2.2414E+01  0.000E+00  0.000E+00  0.000E+00  1.07855E+03  1.143E+00  1.256E+01  6.972E-02  1.381E+00
   1    4    5     2     1    2.0414E+01  3.1702E-01   2.0096E+01  0.000E+00  0.000E+00  0.000E+00  1.07300E+03  1.064E+00  1.200E+01  7.800E-02  1.355E+00
   1    5    6     2     2    2.0096E+01  2.4333E-01   1.9853E+01  0.000E+00  0.000E+00  0.000E+00  1.06756E+03  1.055E+00  1.200E+01  6.000E-02  1.352E+00
   1    6    6     2     3    1.9853E+01  2.4286E-01   1.9610E+01  0.000E+00  0.000E+00  0.000E+00  1.06284E+03  1.048E+00  1.200E+01  6.000E-02  1.349E+00
   1    7    6     2     4    1.9610E+01  2.4240E-01   1.9368E+01  0.000E+00  0.000E+00  0.000E+00  1.05812E+03  1.040E+00  1.200E+01  6.000E-02  1.347E+00
   1    8    6     2     5    1.9368E+01  2.4193E-01   1.9126E+01  0.000E+00  0.000E+00  0.000E+00  1.05339E+03  1.032E+00  1.200E+01  6.000E-02  1.344E+00
   1    3    5     3     1    2.0000E+00  2.8252E-01   1.7175E+00  0.000E+00  0.000E+00  0.000E+00  1.07555E+03  1.909E+00  9.636E+00  7.227E-02  1.955E+00
   1    3    6     3     2    1.7175E+00  2.4905E-01   1.4684E+00  0.000E+00  0.000E+00  0.000E+00  1.07264E+03  1.727E+00  8.909E+00  6.682E-02  1.864E+00
   1    3    7     3     3    1.4684E+00  1.9718E-01   1.2712E+00  0.000E+00  0.000E+00  0.000E+00  1.06987E+03  1.555E+00  8.218E+00  5.547E-02  1.777E+00
   1    4    8     3     4    1.2712E+00  2.2567E-01   1.0456E+00  0.000E+00  0.000E+00  0.000E+00  1.06682E+03  1.364E+00  7.455E+00  6.709E-02  1.682E+00
   1    5    8     3     5    1.0456E+00  1.5790E-01   8.8768E-01  0.000E+00  0.000E+00  0.000E+00  1.06362E+03  1.164E+00  6.655E+00  4.991E-02  1.582E+00
   1    6    8     3     6    8.8768E-01  5.5980E-02   8.3170E-01  0.000E+00  0.000E+00  0.000E+00  1.06158E+03  1.036E+00  6.145E+00  1.844E-02  1.518E+00
   1    5   10     4     1    1.0000E+01  9.0919E-02   9.9091E+00  0.000E+00  0.000E+00  0.000E+00  1.07836E+03  6.368E-01  1.000E+01  2.500E-02  1.212E+00
   1    5    9     4     2    9.9091E+00  1.8158E-01   9.7275E+00  0.000E+00  0.000E+00  0.000E+00  1.07154E+03  6.315E-01  1.000E+01  5.000E-02  1.211E+00
   1    6    8     4     3    9.7275E+00  1.2689E-01   9.6006E+00  0.000E+00  0.000E+00  0.000E+00  1.06381E+03  6.256E-01  1.000E+01  3.500E-02  1.209E+00
   1    6    8     5     1    1.0432E+01  2.2686E-01   1.0205E+01  0.000E+00  0.000E+00  0.000E+00  1.05868E+03  6.790E-01  1.542E+01  6.166E-02  1.226E+00
   1    7    7     5     2    1.0205E+01  2.7894E-01   9.9265E+00  0.000E+00  0.000E+00  0.000E+00  1.05417E+03  6.732E-01  1.519E+01  7.594E-02  1.224E+00
   1    8    7     5     3    9.9265E+00  1.9221E-01   9.7343E+00  0.000E+00  0.000E+00  0.000E+00  1.04992E+03  6.676E-01  1.497E+01  5.241E-02  1.223E+00
   1    8    6     5     4    9.7343E+00  1.3577E-01   9.5985E+00  0.000E+00  0.000E+00  0.000E+00  1.04691E+03  6.637E-01  1.482E+01  3.706E-02  1.221E+00
   1    9    6     6     1    2.1450E+01  2.4660E-01   2.1203E+01  0.000E+00  0.000E+00  0.000E+00  1.04384E+03  1.110E+00  1.200E+01  6.000E-02  1.370E+00
   1   10    7     6     2    2.1203E+01  2.4614E-01   2.0957E+01  0.000E+00  0.000E+00  0.000E+00  1.03928E+03  1.102E+00  1.200E+01  6.000E-02  1.367E+00
   1   11    7     6     3    2.0957E+01  2.4567E-01   2.0711E+01  0.000E+00  0.000E+00  0.000E+00  1.03473E+03  1.095E+00  1.200E+01  6.000E-02  1.365E+00
   1   12    7     6     4    2.0711E+01  2.4521E-01   2.0466E+01  0.000E+00  0.000E+00  0.000E+00  1.03018E+03  1.087E+00  1.200E+01  6.000E-02  1.362E+00
   1   13    7     6     5    2.0466E+01  1.1404E-02   2.0455E+01  0.000E+00  0.000E+00  0.000E+00  1.02699E+03  1.083E+00  1.200E+01  2.400E-02  1.584E-01
   1   14    9     7     1    1.5000E+02  1.3977E+00   1.4860E+02  0.000E+00  0.000E+00  0.000E+00  1.03987E+03  2.288E+00  5.529E+01  5.593E-01  8.330E-01
   1   13    8     7     2    1.4860E+02  2.0219E+00   1.4658E+02  0.000E+00  0.000E+00  0.000E+00  1.03478E+03  2.278E+00  5.525E+01  6.147E-01  1.096E+00
   1   13    7     7     3    1.4658E+02  1.7705E+00   1.4481E+02  0.000E+00  0.000E+00  0.000E+00  1.02969E+03  2.268E+00  5.521E+01  5.583E-01  1.057E+00
   1   13    6     8     1    1.6526E+02  1.1751E+00   1.6409E+02  0.000E+00  0.000E+00  0.000E+00  1.02479E+03  2.917E+00  4.230E+01  4.310E-01  9.087E-01
   1   13    5     8     2    1.6409E+02  4.0271E-01   1.6369E+02  0.000E+00  0.000E+00  0.000E+00  1.01854E+03  2.912E+00  4.222E+01  4.303E-01  3.120E-01
   1   13    4     8     3    1.6369E+02 -1.6887E+00   1.6538E+02  0.000E+00  0.000E+00  0.000E+00  1.01229E+03  2.916E+00  4.229E+01  4.309E+00 -1.306E-01
   1   13    3     8     4    1.6538E+02 -3.2825E+00   1.6866E+02  0.000E+00  0.000E+00  0.000E+00  1.00606E+03  2.933E+00  4.252E+01  4.333E+00 -2.525E-01
   1   13    2     8     5    1.6866E+02 -2.5012E+00   1.7116E+02  0.000E+00  0.000E+00  0.000E+00  9.99827E+02  2.952E+00  4.280E+01  4.361E+00 -1.912E-01
   1   13    1     8     6    1.7116E+02 -1.9865E+00   1.7315E+02  0.000E+00  0.000E+00  0.000E+00  9.94841E+02  2.966E+00  4.301E+01  2.630E+00 -2.518E-01
   1    8    6     9     1    7.2747E+00  0.0000E+00   7.2747E+00  0.000E+00  0.000E+00  0.000E+00  1.08062E+03  1.872E+00  4.000E+00  0.000E+00  1.624E+00
   1    8    5     9     2    7.2747E+00  0.0000E+00   7.2747E+00  0.000E+00  0.000E+00  0.000E+00  1.08012E+03  1.872E+00  4.000E+00  0.000E+00  1.624E+00





UNSATURATED ZONE PACKAGE VOLUMETRIC BUDGET FOR  TIME STEP    30 STRESS PERIOD   42
  ------------------------------------------------------------------------------



     CUMULATIVE VOLUMES      L**3       RATES FOR THIS TIME STEP      L**3/T
     ------------------                 ------------------------

           IN:                                      IN:
           ---                                      ---
        INFILTRATION =  1936942813.3694          INFILTRATION =          11.6823

          OUT:                                     OUT:
          ----                                     ----
              UZF ET =  1555216519.6901                UZF ET =          11.6075
        UZF RECHARGE =    65291465.0745          UZF RECHARGE =           0.1582

            IN - OUT =   316434828.6048              IN - OUT =      -8.3376E-02

          STORAGE:                                 STORAGE:
          --------                                 --------
      STORAGE CHANGE =   316434792.9807        STORAGE CHANGE =      -8.3376E-02

 PERCENT DISCREPANCY IS DIFFERENCE BETWEEN IN-OUT MINUS CHANGE IN STORAGE
 DIVIDED BY THE AVERAGE OF IN AND OUT TIMES 100

 PERCENT DISCREPANCY =           0.00     PERCENT DISCREPANCY =           0.00






1
  VOLUMETRIC BUDGET FOR AGRICULTURAL FIELDS AT  END OF TIME STEP   30, STRESS PERIOD  42
  ------------------------------------------------------------------------------

     CUMULATIVE VOLUMES      L**3       RATES FOR THIS TIME STEP      L**3/T
     ------------------                 ------------------------

           IN:                                      IN:
           ---                                      ---
               AG WELLS  =   872014272.0000                 AG WELLS  =           0.0000
      DIVERSION SEGMENTS =   589976448.0000        DIVERSION SEGMENTS =           7.2747
           GW IRRIGATION =           0.0000             GW IRRIGATION =           0.0000
           SW IRRIGATION =           0.0000             SW IRRIGATION =           0.0000
        SYSTEM LOSSES GW =           0.0000          SYSTEM LOSSES GW =           0.0000
        SYSTEM LOSSES SW =           0.0000          SYSTEM LOSSES SW =           0.0000

                TOTAL IN =  1461990656.0000                  TOTAL IN =           7.2747

          OUT:                                     OUT:
          ----                                     ----
               AG WELLS  =           0.0000                 AG WELLS  =           0.0000
      DIVERSION SEGMENTS =           0.0000        DIVERSION SEGMENTS =           0.0000
           GW IRRIGATION =   872014272.0000             GW IRRIGATION =           0.0000
           SW IRRIGATION =   589988032.0000             SW IRRIGATION =           7.2748
        SYSTEM LOSSES GW =           0.0000          SYSTEM LOSSES GW =           0.0000
        SYSTEM LOSSES SW =           0.0000          SYSTEM LOSSES SW =           0.0000

               TOTAL OUT =  1462002304.0000                 TOTAL OUT =           7.2748

                IN - OUT =      -11648.0000                  IN - OUT =      -1.4496E-04

     PERCENT DISCREPANCY =          -0.00         PERCENT DISCREPANCY =          -0.00



1
  VOLUMETRIC BUDGET FOR ENTIRE MODEL AT END OF TIME STEP   30, STRESS PERIOD  42
  ------------------------------------------------------------------------------

     CUMULATIVE VOLUMES      L**3       RATES FOR THIS TIME STEP      L**3/T
     ------------------                 ------------------------

           IN:                                      IN:
           ---                                      ---
             STORAGE     =  1331406208.0000               STORAGE     =           1.3548
       CONSTANT HEAD     =           0.0000         CONSTANT HEAD     =           0.0000
     HEAD DEP BOUNDS     =    31142350.0000       HEAD DEP BOUNDS     =           0.2900
      STREAM LEAKAGE     =  1290285184.0000        STREAM LEAKAGE     =          12.6627
        UZF RECHARGE     =    65291468.0000          UZF RECHARGE     =           0.1582
               GW ET     =           0.0000                 GW ET     =           0.0000
     SURFACE LEAKAGE     =           0.0000       SURFACE LEAKAGE     =           0.0000
           AG WELLS      =           0.0000             AG WELLS      =           0.0000

                TOTAL IN =  2718125312.0000                  TOTAL IN =          14.4657

          OUT:                                     OUT:
          ----                                     ----
             STORAGE     =   745848320.0000               STORAGE     =           4.7185
       CONSTANT HEAD     =           0.0000         CONSTANT HEAD     =           0.0000
     HEAD DEP BOUNDS     =    31070200.0000       HEAD DEP BOUNDS     =           0.2887
      STREAM LEAKAGE     =  1069200704.0000        STREAM LEAKAGE     =           9.4589
        UZF RECHARGE     =           0.0000          UZF RECHARGE     =           0.0000
               GW ET     =           0.0000                 GW ET     =           0.0000
     SURFACE LEAKAGE     =           0.0000       SURFACE LEAKAGE     =           0.0000
           AG WELLS      =   872014272.0000             AG WELLS      =           0.0000

               TOTAL OUT =  2718133504.0000                 TOTAL OUT =          14.4661

                IN - OUT =       -8192.0000                  IN - OUT =      -4.7302E-04

     PERCENT DISCREPANCY =          -0.00         PERCENT DISCREPANCY =          -0.00






         TIME SUMMARY AT END OF TIME STEP   30 IN STRESS PERIOD   42
                    SECONDS     MINUTES      HOURS       DAYS        YEARS
                    -----------------------------------------------------------
   TIME STEP LENGTH  87667.      1461.1      24.352      1.0147     2.77799E-03
 STRESS PERIOD TIME 2.63000E+06  43833.      730.56      30.440     8.33397E-02
         TOTAL TIME 1.07916E+08 1.79859E+06  29977.      1249.0      3.4196    
1
1
                            STRESS PERIOD NO.   43, LENGTH =   2630000.    
                            -----------------------------------------------

                              NUMBER OF TIME STEPS =    30

                               MULTIPLIER FOR DELT =     1.000

                            INITIAL TIME STEP SIZE =   87666.66    

 REUSING NON-PARAMETER GHB CELLS FROM LAST STRESS PERIOD

      2 GHB CELLS

 REUSING STREAM SEGMENT DATA FROM LAST STRESS PERIOD



            AREAL INFILTRATION RATE
 READING ON UNIT   19 WITH FORMAT: (10F4.0)            

            1           2           3           4           5           6           7           8           9          10
 ........................................................................................................................
   1   1.2000E-09   0.000       0.000       0.000       0.000       0.000       0.000       0.000       0.000       0.000    
   2   2.1000E-09  2.0000E-09  8.0000E-10  8.5000E-09   0.000       0.000       0.000       0.000       0.000       0.000    
   3   5.0000E-10  1.1000E-09  8.8000E-09  5.5000E-09   0.000       0.000       0.000       0.000       0.000       0.000    
   4   8.5000E-09  1.1000E-09  1.1000E-09  1.1000E-09  2.0000E-09   0.000       0.000       0.000       0.000       0.000    
   5   8.5000E-09  1.1000E-09  1.1000E-09  1.1000E-09  1.1000E-09   0.000       0.000       0.000       0.000       0.000    
   6   8.5000E-09  5.2000E-09  2.1000E-09  1.1000E-09  1.5000E-09   0.000       0.000       0.000       0.000       0.000    
   7   8.5000E-09  5.2000E-09  2.1000E-09  1.2000E-09  2.0000E-09   0.000       0.000       0.000       0.000       0.000    
   8   5.0000E-10  5.2000E-09  2.1000E-09  1.2000E-09  5.0000E-09   0.000       0.000       0.000       0.000       0.000    
   9   5.0000E-10  5.2000E-09  2.1000E-09  1.2000E-09  5.0000E-09   0.000       0.000       0.000       0.000       0.000    
  10   5.0000E-10  5.2000E-09  2.1000E-09  1.2000E-09  5.8000E-09   0.000       0.000       0.000       0.000       0.000    
  11   1.0000E-10  1.1000E-09  1.1000E-09  1.2000E-09  5.0000E-09   0.000       0.000       0.000       0.000       0.000    
  12   1.1000E-09  1.1000E-09  1.1000E-09  1.1000E-09  2.0000E-09   0.000       0.000       0.000       0.000       0.000    
  13   1.1000E-09  2.2000E-09  2.2000E-09  2.1000E-09  1.0000E-09   0.000       0.000       0.000       0.000       0.000    
  14   2.0000E-10  5.5000E-09  5.5000E-09  5.2000E-09  1.0000E-09   0.000       0.000       0.000       0.000       0.000    
  15    0.000      8.8000E-09  8.8000E-09   0.000       0.000       0.000       0.000       0.000       0.000       0.000    

                  ET RATE =  1.500000E-07

 USING ET EXTINCTION DEPTH FROM PREVIOUS STRESS PERIOD. CURRENT PERIOD IS:      43

 USING EXTINCTION WATER CONTENT FROM PREVIOUS STRESS PERIOD. CURRENT PERIOD IS:      43

 USING AIR ENTRY PRESSURE FROM PREVIOUS STRESS PERIOD. CURRENT PERIOD IS:      43

 USING ROOT PRESSURE HEAD FROM PREVIOUS STRESS PERIOD. CURRENT PERIOD IS:      43

 USING ROOT ACTIVITY FROM PREVIOUS STRESS PERIOD. CURRENT PERIOD IS:      43

 PROCESSING AG STRESS PERIOD DATA

 READING AG STRESS PERIOD DATA

 READING IRRIGATION SEGMENT

 READING IRRIGATION WELL

 READING SUPPLEMENTAL WELL

 END PROCESSING AG STRESS PERIOD DATA OPTIONS
 
 SOLVING FOR HEAD 
                                                   Max.-Head-Change                         Max.-Flux-Residual
  Residual-Control   Outer-Iter.   Inner-Iter.     Column Row Layer    Maximum-Head-Change  Column Row Layer    Maximum-Flux-Residual          L2-NORM 
          0                 1           2             3    7     1       0.4542790591E-02       4    7    1         0.1948023555E+00      0.8213517956E+00
          0                 2           2             4    7     1      -0.4821460155E-01       5    8    1        -0.2590277189E+01      0.6377303524E+01
          0                 3           2             4    7     1       0.1328142043E-01       5    8    1         0.7376040811E+00      0.1804310074E+01
          0                 4           2             4    7     1      -0.5284830175E-03       5    8    1        -0.3016843000E-01      0.7396997974E-01
          0                 5           1             4    7     1       0.6516420285E-05       5    8    1         0.3823263951E-03      0.9657401186E-03

    ------------------------------------------------
       NWT REQUIRED            5 OUTER ITERATIONS 
       AND A TOTAL OF          9 INNER ITERATIONS.
    ------------------------------------------------

 NO OUTPUT CONTROL FOR STRESS PERIOD   43   TIME STEP    1
 
 SOLVING FOR HEAD 
                                                   Max.-Head-Change                         Max.-Flux-Residual
  Residual-Control   Outer-Iter.   Inner-Iter.     Column Row Layer    Maximum-Head-Change  Column Row Layer    Maximum-Flux-Residual          L2-NORM 
          0                 1           2             4    6     1       0.4223133160E-02       5    6    1         0.2219197645E+00      0.8219363287E+00
          0                 2           2             4    7     1      -0.5490120292E-02       5    6    1        -0.2964222434E+00      0.7318680820E+00
          0                 3           2             4    7     1       0.4762669289E-02       5    6    1         0.2630313470E+00      0.6470301921E+00
          0                 4           2             4    7     1      -0.1949946786E-03       5    6    1        -0.1106914002E-01      0.2735503179E-01
          0                 5           1             4    7     1       0.7790426420E-04       5    6    1         0.4543433539E-02      0.1346969799E-01

    ------------------------------------------------
       NWT REQUIRED            5 OUTER ITERATIONS 
       AND A TOTAL OF          9 INNER ITERATIONS.
    ------------------------------------------------

 NO OUTPUT CONTROL FOR STRESS PERIOD   43   TIME STEP    2
 
 SOLVING FOR HEAD 
                                                   Max.-Head-Change                         Max.-Flux-Residual
  Residual-Control   Outer-Iter.   Inner-Iter.     Column Row Layer    Maximum-Head-Change  Column Row Layer    Maximum-Flux-Residual          L2-NORM 
          0                 1           2             4    6     1       0.4205139727E-02       4    6    1         0.2199601314E+00      0.8183590896E+00
          0                 2           2             4    7     1      -0.6227244394E-01       4    6    1        -0.3345566997E+01      0.8224593960E+01
          0                 3           2             4    7     1       0.4240460535E-02       5    6    1         0.2341865429E+00      0.5755751865E+00
          0                 4           2             4    7     1      -0.1687321875E-03       5    6    1        -0.9578248285E-02      0.2353475664E-01
          0                 5           1             4    7     1       0.2080540598E-05       5    6    1         0.1213859236E-03      0.2985666010E-03

    ------------------------------------------------
       NWT REQUIRED            5 OUTER ITERATIONS 
       AND A TOTAL OF          9 INNER ITERATIONS.
    ------------------------------------------------

 NO OUTPUT CONTROL FOR STRESS PERIOD   43   TIME STEP    3
 
 SOLVING FOR HEAD 
                                                   Max.-Head-Change                         Max.-Flux-Residual
  Residual-Control   Outer-Iter.   Inner-Iter.     Column Row Layer    Maximum-Head-Change  Column Row Layer    Maximum-Flux-Residual          L2-NORM 
          0                 1           2             5    6     1       0.5812529419E-02       5    6    1         0.3098084018E+00      0.8905901957E+00
          0                 2           2             4    7     1      -0.1259285994E-01       5    6    1        -0.6846547217E+00      0.1679131431E+01
          0                 3           2             4    7     1       0.1218033028E-01       5    6    1         0.6729932874E+00      0.1654335260E+01
          0                 4           2             4    7     1      -0.5053346661E-03       5    8    1        -0.2869830449E-01      0.7033511027E-01
          0                 5           1             4   13     1      -0.7028180033E-04       4   13    1        -0.4369461911E-02      0.1161064671E-01

    ------------------------------------------------
       NWT REQUIRED            5 OUTER ITERATIONS 
       AND A TOTAL OF          9 INNER ITERATIONS.
    ------------------------------------------------

 NO OUTPUT CONTROL FOR STRESS PERIOD   43   TIME STEP    4
 
 SOLVING FOR HEAD 
                                                   Max.-Head-Change                         Max.-Flux-Residual
  Residual-Control   Outer-Iter.   Inner-Iter.     Column Row Layer    Maximum-Head-Change  Column Row Layer    Maximum-Flux-Residual          L2-NORM 
          0                 1           2             5    6     1       0.5686763863E-02       5    6    1         0.3028278004E+00      0.8862849300E+00
          0                 2           2             4    7     1      -0.5485079734E-01       5    6    1        -0.2953176355E+01      0.7261943389E+01
          0                 3           2             4    7     1       0.3735088100E-02       5    6    1         0.2067215361E+00      0.5081714946E+00
          0                 4           2             4    7     1      -0.1486228776E-03       5    6    1        -0.8454926772E-02      0.2077690362E-01
          0                 5           1             4    7     1       0.1832584333E-05       5    6    1         0.1071499655E-03      0.2636537585E-03

    ------------------------------------------------
       NWT REQUIRED            5 OUTER ITERATIONS 
       AND A TOTAL OF          9 INNER ITERATIONS.
    ------------------------------------------------

 NO OUTPUT CONTROL FOR STRESS PERIOD   43   TIME STEP    5
 
 SOLVING FOR HEAD 
                                                   Max.-Head-Change                         Max.-Flux-Residual
  Residual-Control   Outer-Iter.   Inner-Iter.     Column Row Layer    Maximum-Head-Change  Column Row Layer    Maximum-Flux-Residual          L2-NORM 
          0                 1           2             5    8     1       0.7049817066E-02       5    8    1         0.3783478245E+00      0.9754018477E+00
          0                 2           2             4    7     1      -0.1556489256E-01       5    8    1        -0.8491375912E+00      0.2079055091E+01
          0                 3           2             4    7     1       0.1535973705E-01       5    8    1         0.8488443048E+00      0.2086135054E+01
          0                 4           2             4    7     1      -0.6158558868E-03       4    6    1        -0.3539298459E-01      0.8610034338E-01
          0                 5           1             4   13     1      -0.5410895223E-04       4   13    1        -0.3362778762E-02      0.5713831943E-02

    ------------------------------------------------
       NWT REQUIRED            5 OUTER ITERATIONS 
       AND A TOTAL OF          9 INNER ITERATIONS.
    ------------------------------------------------

 NO OUTPUT CONTROL FOR STRESS PERIOD   43   TIME STEP    6
 
 SOLVING FOR HEAD 
                                                   Max.-Head-Change                         Max.-Flux-Residual
  Residual-Control   Outer-Iter.   Inner-Iter.     Column Row Layer    Maximum-Head-Change  Column Row Layer    Maximum-Flux-Residual          L2-NORM 
          0                 1           2             5    6     1       0.6855602691E-02       5    8    1         0.3670111045E+00      0.9669938882E+00
          0                 2           2             4    7     1      -0.5051839769E-01       5    8    1        -0.2724875494E+01      0.6697012001E+01
          0                 3           2             4    7     1       0.7024227857E-02       5    6    1         0.3886112476E+00      0.9505987446E+00
          0                 4           2             4    7     1      -0.2795014043E-03       5    6    1        -0.1589423671E-01      0.3887986156E-01
          0                 5           1             4    7     1       0.3446372216E-05       5    6    1         0.2014289489E-03      0.4927591115E-03

    ------------------------------------------------
       NWT REQUIRED            5 OUTER ITERATIONS 
       AND A TOTAL OF          9 INNER ITERATIONS.
    ------------------------------------------------

 NO OUTPUT CONTROL FOR STRESS PERIOD   43   TIME STEP    7
 
 SOLVING FOR HEAD 
                                                   Max.-Head-Change                         Max.-Flux-Residual
  Residual-Control   Outer-Iter.   Inner-Iter.     Column Row Layer    Maximum-Head-Change  Column Row Layer    Maximum-Flux-Residual          L2-NORM 
          0                 1           2             5    8     1       0.7946406500E-02       5    8    1         0.4274612362E+00      0.1052484296E+01
          0                 2           2             4    7     1      -0.2100077122E-01       5    8    1        -0.1144093999E+01      0.2802152614E+01
          0                 3           2             4    7     1       0.2039569845E-01       5    8    1         0.1127058627E+01      0.2770475778E+01
          0                 4           2             4    7     1      -0.1436916807E-03       5    8    1        -0.8200538236E-02      0.2034614801E-01
          0                 5           1             4    7     1       0.7097342733E-04       5    8    1         0.4139716506E-02      0.1093550208E-01

    ------------------------------------------------
       NWT REQUIRED            5 OUTER ITERATIONS 
       AND A TOTAL OF          9 INNER ITERATIONS.
    ------------------------------------------------

 NO OUTPUT CONTROL FOR STRESS PERIOD   43   TIME STEP    8
 
 SOLVING FOR HEAD 
                                                   Max.-Head-Change                         Max.-Flux-Residual
  Residual-Control   Outer-Iter.   Inner-Iter.     Column Row Layer    Maximum-Head-Change  Column Row Layer    Maximum-Flux-Residual          L2-NORM 
          0                 1           2             5    6     1       0.7695993168E-02       5    8    1         0.4132948197E+00      0.1042557268E+01
          0                 2           2             4    7     1      -0.4668694568E-01       5    8    1        -0.2521816765E+01      0.6195042989E+01
          0                 3           2             4    7     1       0.1052576827E-01       5    6    1         0.5820815746E+00      0.1425806929E+01
          0                 4           2             4    7     1      -0.4188319734E-03       5    8    1        -0.2380739748E-01      0.5838904642E-01
          0                 5           1             4    7     1       0.5164376910E-05       5    8    1         0.3017127369E-03      0.7520795647E-03

    ------------------------------------------------
       NWT REQUIRED            5 OUTER ITERATIONS 
       AND A TOTAL OF          9 INNER ITERATIONS.
    ------------------------------------------------

 NO OUTPUT CONTROL FOR STRESS PERIOD   43   TIME STEP    9
 
 SOLVING FOR HEAD 
                                                   Max.-Head-Change                         Max.-Flux-Residual
  Residual-Control   Outer-Iter.   Inner-Iter.     Column Row Layer    Maximum-Head-Change  Column Row Layer    Maximum-Flux-Residual          L2-NORM 
          0                 1           2             5    8     1       0.8532682997E-02       5    8    1         0.4594469211E+00      0.1115606578E+01
          0                 2           2             4    7     1      -0.2866570519E-01       5    8    1        -0.1557214600E+01      0.3817906183E+01
          0                 3           2             4    7     1       0.2685574908E-01       5    8    1         0.1483779582E+01      0.3645912646E+01
          0                 4           2             4    7     1      -0.1068627195E-02       5    8    1        -0.6068820507E-01      0.1500091119E+00
          0                 5           1             4    7     1       0.1317661744E-04       5    8    1         0.7691041819E-03      0.2041831461E-02

    ------------------------------------------------
       NWT REQUIRED            5 OUTER ITERATIONS 
       AND A TOTAL OF          9 INNER ITERATIONS.
    ------------------------------------------------

 NO OUTPUT CONTROL FOR STRESS PERIOD   43   TIME STEP   10
 
 SOLVING FOR HEAD 
                                                   Max.-Head-Change                         Max.-Flux-Residual
  Residual-Control   Outer-Iter.   Inner-Iter.     Column Row Layer    Maximum-Head-Change  Column Row Layer    Maximum-Flux-Residual          L2-NORM 
          0                 1           2             5    6     1       0.8320429838E-02       5    8    1         0.4473263515E+00      0.1111026171E+01
          0                 2           2             4    7     1      -0.5133505977E-01       5    8    1        -0.2773042233E+01      0.6812347116E+01
          0                 3           2             4    7     1       0.6353051376E-02       5    6    1         0.3518452113E+00      0.8607533565E+00
          0                 4           2             4    7     1      -0.2527945124E-03       5    8    1        -0.1439053122E-01      0.3520473299E-01
          0                 5           1             4    7     1       0.3117065065E-05       5    8    1         0.1823722441E-03      0.4461391690E-03

    ------------------------------------------------
       NWT REQUIRED            5 OUTER ITERATIONS 
       AND A TOTAL OF          9 INNER ITERATIONS.
    ------------------------------------------------

 NO OUTPUT CONTROL FOR STRESS PERIOD   43   TIME STEP   11
 
 SOLVING FOR HEAD 
                                                   Max.-Head-Change                         Max.-Flux-Residual
  Residual-Control   Outer-Iter.   Inner-Iter.     Column Row Layer    Maximum-Head-Change  Column Row Layer    Maximum-Flux-Residual          L2-NORM 
          0                 1           2             5    8     1       0.9386123709E-02       5    8    1         0.5061225351E+00      0.1205643075E+01
          0                 2           2             5    6     1      -0.8433714282E-02       5    8    1        -0.4640846063E+00      0.1125908427E+01
          0                 3           2             4    7     1       0.7509993400E-02       5    8    1         0.4160001052E+00      0.1021664015E+01
          0                 4           2             4    7     1      -0.2761185656E-03       5    6    1        -0.1572282275E-01      0.3847592581E-01
          0                 5           2             4    7     1       0.1268074432E-03       5    6    1         0.7395837888E-02      0.1939356156E-01
          0                 6           1             4    7     1      -0.6519159655E-04       4    7    1        -0.3907237781E-02      0.1069637086E-01

    ------------------------------------------------
       NWT REQUIRED            6 OUTER ITERATIONS 
       AND A TOTAL OF         11 INNER ITERATIONS.
    ------------------------------------------------

 NO OUTPUT CONTROL FOR STRESS PERIOD   43   TIME STEP   12
 
 SOLVING FOR HEAD 
                                                   Max.-Head-Change                         Max.-Flux-Residual
  Residual-Control   Outer-Iter.   Inner-Iter.     Column Row Layer    Maximum-Head-Change  Column Row Layer    Maximum-Flux-Residual          L2-NORM 
          0                 1           2             5    6     1       0.9071734258E-02       5    8    1         0.4884798760E+00      0.1178407927E+01
          0                 2           2             4    7     1      -0.5255036389E-01       5    8    1        -0.2840357622E+01      0.6975997427E+01
          0                 3           2             4    7     1       0.5289610781E-02       5    6    1         0.2933560037E+00      0.7176411750E+00
          0                 4           2             4    7     1      -0.2104787329E-03       5    6    1        -0.1199828541E-01      0.2934896228E-01
          0                 5           1             4    7     1       0.2595293911E-05       5    6    1         0.1520552573E-03      0.3722336836E-03

    ------------------------------------------------
       NWT REQUIRED            5 OUTER ITERATIONS 
       AND A TOTAL OF          9 INNER ITERATIONS.
    ------------------------------------------------

 NO OUTPUT CONTROL FOR STRESS PERIOD   43   TIME STEP   13
 
 SOLVING FOR HEAD 
                                                   Max.-Head-Change                         Max.-Flux-Residual
  Residual-Control   Outer-Iter.   Inner-Iter.     Column Row Layer    Maximum-Head-Change  Column Row Layer    Maximum-Flux-Residual          L2-NORM 
          0                 1           2             5    8     1       0.1016999895E-01       5    8    1         0.5489230300E+00      0.1281063888E+01
          0                 2           2             4    7     1      -0.2084317649E-01       5    8    1        -0.1141748146E+01      0.2791174901E+01
          0                 3           2             4    7     1       0.1996202929E-01       5    8    1         0.1103499549E+01      0.2712092498E+01
          0                 4           1             4    7     1       0.3934962921E-04       5    7    1         0.2185523756E-02      0.5582652361E-02

    ------------------------------------------------
       NWT REQUIRED            4 OUTER ITERATIONS 
       AND A TOTAL OF          7 INNER ITERATIONS.
    ------------------------------------------------

 NO OUTPUT CONTROL FOR STRESS PERIOD   43   TIME STEP   14
 
 SOLVING FOR HEAD 
                                                   Max.-Head-Change                         Max.-Flux-Residual
  Residual-Control   Outer-Iter.   Inner-Iter.     Column Row Layer    Maximum-Head-Change  Column Row Layer    Maximum-Flux-Residual          L2-NORM 
          0                 1           2             5    6     1       0.9811761340E-02       5    8    1         0.5289422145E+00      0.1258013037E+01
          0                 2           2             4    7     1      -0.4731791302E-01       5    8    1        -0.2561230812E+01      0.6287510810E+01
          0                 3           2             4    7     1       0.1004682288E-01       5    8    1         0.5569595456E+00      0.1363160143E+01
          0                 4           2             4    7     1      -0.3997730991E-03       5    6    1        -0.2277229945E-01      0.5580531720E-01
          0                 5           1             4    7     1       0.4929374825E-05       4    6    1         0.2881253167E-03      0.7179682678E-03

    ------------------------------------------------
       NWT REQUIRED            5 OUTER ITERATIONS 
       AND A TOTAL OF          9 INNER ITERATIONS.
    ------------------------------------------------

 NO OUTPUT CONTROL FOR STRESS PERIOD   43   TIME STEP   15
 
 SOLVING FOR HEAD 
                                                   Max.-Head-Change                         Max.-Flux-Residual
  Residual-Control   Outer-Iter.   Inner-Iter.     Column Row Layer    Maximum-Head-Change  Column Row Layer    Maximum-Flux-Residual          L2-NORM 
          0                 1           2             5    8     1       0.1058048921E-01       5    8    1         0.5711466574E+00      0.1334834008E+01
          0                 2           2             4    7     1      -0.2307100044E-01       5    8    1        -0.1261234564E+01      0.3085250520E+01
          0                 3           2             4    7     1       0.2339533948E-01       5    8    1         0.1292392251E+01      0.3175531716E+01
          0                 4           2             4    7     1      -0.9309259151E-03       5    8    1        -0.5284384203E-01      0.1306669276E+00
          0                 5           1             4    7     1       0.1147871448E-04       4    7    1         0.6690416644E-03      0.1783649865E-02

    ------------------------------------------------
       NWT REQUIRED            5 OUTER ITERATIONS 
       AND A TOTAL OF          9 INNER ITERATIONS.
    ------------------------------------------------

 NO OUTPUT CONTROL FOR STRESS PERIOD   43   TIME STEP   16
 
 SOLVING FOR HEAD 
                                                   Max.-Head-Change                         Max.-Flux-Residual
  Residual-Control   Outer-Iter.   Inner-Iter.     Column Row Layer    Maximum-Head-Change  Column Row Layer    Maximum-Flux-Residual          L2-NORM 
          0                 1           2             5    6     1       0.1020480724E-01       5    8    1         0.5498116520E+00      0.1309677057E+01
          0                 2           2             4    7     1      -0.4775762344E-01       5    8    1        -0.2583755493E+01      0.6343143118E+01
          0                 3           2             4    7     1       0.9727548986E-02       5    6    1         0.5381014089E+00      0.1317342467E+01
          0                 4           2             4    7     1      -0.3870688673E-03       5    6    1        -0.2200129416E-01      0.5392073756E-01
          0                 5           1             4    7     1       0.4772725997E-05       4    6    1         0.2783598288E-03      0.6922623454E-03

    ------------------------------------------------
       NWT REQUIRED            5 OUTER ITERATIONS 
       AND A TOTAL OF          9 INNER ITERATIONS.
    ------------------------------------------------

 NO OUTPUT CONTROL FOR STRESS PERIOD   43   TIME STEP   17
 
 SOLVING FOR HEAD 
                                                   Max.-Head-Change                         Max.-Flux-Residual
  Residual-Control   Outer-Iter.   Inner-Iter.     Column Row Layer    Maximum-Head-Change  Column Row Layer    Maximum-Flux-Residual          L2-NORM 
          0                 1           2             5    8     1       0.1097283259E-01       5    8    1         0.5923768522E+00      0.1387566947E+01
          0                 2           2             4    7     1      -0.2246075306E-01       5    8    1        -0.1228812064E+01      0.3005557391E+01
          0                 3           2             4    7     1       0.2234884984E-01       5    8    1         0.1234677609E+01      0.3034019887E+01
          0                 4           2             4    7     1      -0.6226255946E-03       5    8    1        -0.3536144033E-01      0.8748900038E-01
          0                 5           1             4    7     1       0.7930582239E-04       4    8    1         0.4622566927E-02      0.1147774177E-01

    ------------------------------------------------
       NWT REQUIRED            5 OUTER ITERATIONS 
       AND A TOTAL OF          9 INNER ITERATIONS.
    ------------------------------------------------

 NO OUTPUT CONTROL FOR STRESS PERIOD   43   TIME STEP   18
 
 SOLVING FOR HEAD 
                                                   Max.-Head-Change                         Max.-Flux-Residual
  Residual-Control   Outer-Iter.   Inner-Iter.     Column Row Layer    Maximum-Head-Change  Column Row Layer    Maximum-Flux-Residual          L2-NORM 
          0                 1           2             5    6     1       0.1058892030E-01       5    8    1         0.5702531045E+00      0.1359779492E+01
          0                 2           2             4    7     1      -0.4741257997E-01       5    8    1        -0.2565489495E+01      0.6298342053E+01
          0                 3           2             4    7     1       0.1007217696E-01       5    6    1         0.5571364005E+00      0.1364097780E+01
          0                 4           2             4    7     1      -0.4007819790E-03       5    6    1        -0.2277967365E-01      0.5584273686E-01
          0                 5           1             4    7     1       0.4941814184E-05       4    6    1         0.2882174258E-03      0.7183029367E-03

    ------------------------------------------------
       NWT REQUIRED            5 OUTER ITERATIONS 
       AND A TOTAL OF          9 INNER ITERATIONS.
    ------------------------------------------------

 NO OUTPUT CONTROL FOR STRESS PERIOD   43   TIME STEP   19
 
 SOLVING FOR HEAD 
                                                   Max.-Head-Change                         Max.-Flux-Residual
  Residual-Control   Outer-Iter.   Inner-Iter.     Column Row Layer    Maximum-Head-Change  Column Row Layer    Maximum-Flux-Residual          L2-NORM 
          0                 1           2             5    6     1       0.1131739069E-01       5    8    1         0.6108407372E+00      0.1434911380E+01
          0                 2           2             4    7     1      -0.2309472329E-01       5    8    1        -0.1262923300E+01      0.3089791422E+01
          0                 3           2             4    7     1       0.2321840866E-01       5    8    1         0.1282659330E+01      0.3151747085E+01
          0                 4           2             4    7     1      -0.8284781610E-03       5    8    1        -0.4703532557E-01      0.1163198682E+00
          0                 5           1             4    7     1       0.3662593737E-04       4    8    1         0.2134821281E-02      0.5354554443E-02

    ------------------------------------------------
       NWT REQUIRED            5 OUTER ITERATIONS 
       AND A TOTAL OF          9 INNER ITERATIONS.
    ------------------------------------------------

 NO OUTPUT CONTROL FOR STRESS PERIOD   43   TIME STEP   20
 
 SOLVING FOR HEAD 
                                                   Max.-Head-Change                         Max.-Flux-Residual
  Residual-Control   Outer-Iter.   Inner-Iter.     Column Row Layer    Maximum-Head-Change  Column Row Layer    Maximum-Flux-Residual          L2-NORM 
          0                 1           2             5    6     1       0.1092429811E-01       5    6    1         0.5882067207E+00      0.1405343675E+01
          0                 2           2             4    7     1      -0.4747467726E-01       5    6    1        -0.2568864608E+01      0.6306938778E+01
          0                 3           2             4    7     1       0.1004776822E-01       5    6    1         0.5557939634E+00      0.1360795703E+01
          0                 4           2             4    7     1      -0.3998107293E-03       5    6    1        -0.2272483665E-01      0.5570658965E-01
          0                 5           1             4    7     1       0.4929838790E-05       4    6    1         0.2875248424E-03      0.7164093586E-03

    ------------------------------------------------
       NWT REQUIRED            5 OUTER ITERATIONS 
       AND A TOTAL OF          9 INNER ITERATIONS.
    ------------------------------------------------

 NO OUTPUT CONTROL FOR STRESS PERIOD   43   TIME STEP   21
 
 SOLVING FOR HEAD 
                                                   Max.-Head-Change                         Max.-Flux-Residual
  Residual-Control   Outer-Iter.   Inner-Iter.     Column Row Layer    Maximum-Head-Change  Column Row Layer    Maximum-Flux-Residual          L2-NORM 
          0                 1           2             5    6     1       0.1164216078E-01       5    8    1         0.6280254015E+00      0.1479725608E+01
          0                 2           2             4    7     1      -0.3864845801E-01       5    8    1        -0.2097710989E+01      0.5144761777E+01
          0                 3           2             4    7     1       0.1805844828E-01       5    6    1         0.9979527841E+00      0.2448723600E+01
          0                 4           2             4    7     1      -0.7185646110E-03       5    8    1        -0.4080430496E-01      0.1005526592E+00
          0                 5           1             4    7     1       0.8860210085E-05       4    8    1         0.5165043699E-03      0.1342019748E-02

    ------------------------------------------------
       NWT REQUIRED            5 OUTER ITERATIONS 
       AND A TOTAL OF          9 INNER ITERATIONS.
    ------------------------------------------------

 NO OUTPUT CONTROL FOR STRESS PERIOD   43   TIME STEP   22
 
 SOLVING FOR HEAD 
                                                   Max.-Head-Change                         Max.-Flux-Residual
  Residual-Control   Outer-Iter.   Inner-Iter.     Column Row Layer    Maximum-Head-Change  Column Row Layer    Maximum-Flux-Residual          L2-NORM 
          0                 1           2             5    6     1       0.1184014869E-01       5    8    1         0.6386104195E+00      0.1507016631E+01
          0                 2           2             4    6     1      -0.1804100532E-01       5    8    1        -0.9907460374E+00      0.2420352592E+01
          0                 3           2             4    7     1       0.1761626389E-01       5    8    1         0.9735807706E+00      0.2392190726E+01
          0                 4           2             4    7     1      -0.7098430287E-03       5    8    1        -0.4031144770E-01      0.9905780397E-01
          0                 5           1             4   13     1      -0.5744199907E-04       4   13    1        -0.3569831568E-02      0.6755802294E-02

    ------------------------------------------------
       NWT REQUIRED            5 OUTER ITERATIONS 
       AND A TOTAL OF          9 INNER ITERATIONS.
    ------------------------------------------------

 NO OUTPUT CONTROL FOR STRESS PERIOD   43   TIME STEP   23
 
 SOLVING FOR HEAD 
                                                   Max.-Head-Change                         Max.-Flux-Residual
  Residual-Control   Outer-Iter.   Inner-Iter.     Column Row Layer    Maximum-Head-Change  Column Row Layer    Maximum-Flux-Residual          L2-NORM 
          0                 1           2             5    6     1       0.1143891202E-01       5    6    1         0.6159856095E+00      0.1471879570E+01
          0                 2           2             4    7     1      -0.4972260644E-01       5    6    1        -0.2689609621E+01      0.6604319257E+01
          0                 3           2             4    7     1       0.8062725991E-02       5    6    1         0.4462783024E+00      0.1091869089E+01
          0                 4           2             4    7     1      -0.3208238144E-03       5    6    1        -0.1824697297E-01      0.4466131513E-01
          0                 5           1             4    7     1       0.3955896004E-05       5    6    1         0.2308478602E-03      0.5683761722E-03

    ------------------------------------------------
       NWT REQUIRED            5 OUTER ITERATIONS 
       AND A TOTAL OF          9 INNER ITERATIONS.
    ------------------------------------------------

 NO OUTPUT CONTROL FOR STRESS PERIOD   43   TIME STEP   24
 
 SOLVING FOR HEAD 
                                                   Max.-Head-Change                         Max.-Flux-Residual
  Residual-Control   Outer-Iter.   Inner-Iter.     Column Row Layer    Maximum-Head-Change  Column Row Layer    Maximum-Flux-Residual          L2-NORM 
          0                 1           2             5    6     1       0.1225815393E-01       5    8    1         0.6611466631E+00      0.1556450978E+01
          0                 2           2             4    7     1      -0.2170454270E-01       5    8    1        -0.1188804939E+01      0.2907460152E+01
          0                 3           2             4    7     1       0.2057250592E-01       5    8    1         0.1136712008E+01      0.2794073912E+01
          0                 4           1             4    7     1       0.6945947802E-04       4    7    1         0.3835216089E-02      0.9394120088E-02

    ------------------------------------------------
       NWT REQUIRED            4 OUTER ITERATIONS 
       AND A TOTAL OF          7 INNER ITERATIONS.
    ------------------------------------------------

 NO OUTPUT CONTROL FOR STRESS PERIOD   43   TIME STEP   25
 
 SOLVING FOR HEAD 
                                                   Max.-Head-Change                         Max.-Flux-Residual
  Residual-Control   Outer-Iter.   Inner-Iter.     Column Row Layer    Maximum-Head-Change  Column Row Layer    Maximum-Flux-Residual          L2-NORM 
          0                 1           2             5    6     1       0.1183815474E-01       5    6    1         0.6375984050E+00      0.1521878265E+01
          0                 2           2             4    7     1      -0.4639071425E-01       5    6    1        -0.2511101113E+01      0.6164809988E+01
          0                 3           2             4    7     1       0.1111043534E-01       5    6    1         0.6144554697E+00      0.1504966569E+01
          0                 4           2             4    7     1      -0.4420953900E-03       5    6    1        -0.2512357449E-01      0.6163776054E-01
          0                 5           1             4    7     1       0.5451226630E-05       4    6    1         0.3179039486E-03      0.7974254804E-03

    ------------------------------------------------
       NWT REQUIRED            5 OUTER ITERATIONS 
       AND A TOTAL OF          9 INNER ITERATIONS.
    ------------------------------------------------

 NO OUTPUT CONTROL FOR STRESS PERIOD   43   TIME STEP   26
 
 SOLVING FOR HEAD 
                                                   Max.-Head-Change                         Max.-Flux-Residual
  Residual-Control   Outer-Iter.   Inner-Iter.     Column Row Layer    Maximum-Head-Change  Column Row Layer    Maximum-Flux-Residual          L2-NORM 
          0                 1           2             5    6     1       0.1245760701E-01       5    6    1         0.6714770134E+00      0.1588022031E+01
          0                 2           2             4    7     1      -0.3856671578E-01       5    6    1        -0.2093236245E+01      0.5134326006E+01
          0                 3           2             4    7     1       0.1821278147E-01       5    6    1         0.1006464292E+01      0.2469498107E+01
          0                 4           2             4    7     1      -0.7247280188E-03       4    8    1        -0.4122869355E-01      0.1014576219E+00
          0                 5           1             4    7     1       0.8936207223E-05       4    8    1         0.5221749643E-03      0.1354574075E-02

    ------------------------------------------------
       NWT REQUIRED            5 OUTER ITERATIONS 
       AND A TOTAL OF          9 INNER ITERATIONS.
    ------------------------------------------------

 NO OUTPUT CONTROL FOR STRESS PERIOD   43   TIME STEP   27
 
 SOLVING FOR HEAD 
                                                   Max.-Head-Change                         Max.-Flux-Residual
  Residual-Control   Outer-Iter.   Inner-Iter.     Column Row Layer    Maximum-Head-Change  Column Row Layer    Maximum-Flux-Residual          L2-NORM 
          0                 1           2             5    6     1       0.1261736859E-01       5    6    1         0.6800877914E+00      0.1611319243E+01
          0                 2           2             5    7     1      -0.1930750084E-01       5    6    1        -0.1059188787E+01      0.2589443738E+01
          0                 3           2             4    7     1       0.1886597178E-01       5    6    1         0.1042508614E+01      0.2561603123E+01
          0                 4           2             4    7     1      -0.6946649767E-03       4    8    1        -0.3984431637E-01      0.9720287146E-01
          0                 5           1             4    7     1       0.7595936013E-04       4    8    1         0.4432888185E-02      0.1200142293E-01

    ------------------------------------------------
       NWT REQUIRED            5 OUTER ITERATIONS 
       AND A TOTAL OF          9 INNER ITERATIONS.
    ------------------------------------------------

 NO OUTPUT CONTROL FOR STRESS PERIOD   43   TIME STEP   28
 
 SOLVING FOR HEAD 
                                                   Max.-Head-Change                         Max.-Flux-Residual
  Residual-Control   Outer-Iter.   Inner-Iter.     Column Row Layer    Maximum-Head-Change  Column Row Layer    Maximum-Flux-Residual          L2-NORM 
          0                 1           2             5    6     1       0.1218511087E-01       5    6    1         0.6561819962E+00      0.1572752137E+01
          0                 2           2             4    7     1      -0.4955070553E-01       5    6    1        -0.2680053697E+01      0.6581502557E+01
          0                 3           2             4    7     1       0.8296934570E-02       5    6    1         0.4591862241E+00      0.1123208105E+01
          0                 4           2             4    7     1      -0.3301432107E-03       5    6    1        -0.1877487035E-01      0.4594602985E-01
          0                 5           1             4    7     1       0.4070808104E-05       5    6    1         0.2375353465E-03      0.5851875673E-03

    ------------------------------------------------
       NWT REQUIRED            5 OUTER ITERATIONS 
       AND A TOTAL OF          9 INNER ITERATIONS.
    ------------------------------------------------

 NO OUTPUT CONTROL FOR STRESS PERIOD   43   TIME STEP   29
 
 SOLVING FOR HEAD 
                                                   Max.-Head-Change                         Max.-Flux-Residual
  Residual-Control   Outer-Iter.   Inner-Iter.     Column Row Layer    Maximum-Head-Change  Column Row Layer    Maximum-Flux-Residual          L2-NORM 
          0                 1           2             5    6     1       0.1296468105E-01       5    6    1         0.6988631663E+00      0.1653904565E+01
          0                 2           2             4    7     1      -0.2171627286E-01       5    6    1        -0.1188906244E+01      0.2908561046E+01
          0                 3           2             4    7     1       0.2035101301E-01       5    6    1         0.1124447288E+01      0.2764130862E+01
          0                 4           2             4    7     1       0.1905221765E-03       4    7    1         0.1051435123E-01      0.2577608439E-01
          0                 5           2             4    7     1       0.2726469290E-03       5    8    1         0.1504456920E-01      0.3719361447E-01
          0                 6           1             4    7     1       0.6605860018E-04       4    7    1         0.3644515511E-02      0.8992861010E-02

    ------------------------------------------------
       NWT REQUIRED            6 OUTER ITERATIONS 
       AND A TOTAL OF         11 INNER ITERATIONS.
    ------------------------------------------------

 NO OUTPUT CONTROL FOR STRESS PERIOD   43   TIME STEP   30



 STREAM LISTING     PERIOD     43   STEP       30

 LAYER ROW COL. STREAM  RCH.  FLOW INTO     FLOW TO   FLOW OUT OF   OVRLND.     DIRECT     STREAM       STREAM     STREAM     STREAM   STREAMBED  STREAMBED
                SEG.NO.  NO.  STRM. RCH.    AQUIFER    STRM. RCH.    RUNOFF     PRECIP       ET          HEAD       DEPTH      WIDTH   CONDCTNC.   GRADIENT

   1    1    1     1     1    2.1749E+01  2.2965E-01   2.1520E+01  0.000E+00  0.000E+00  0.000E+00  1.09418E+03  1.128E+00  1.236E+01  5.564E-02  1.376E+00
   1    2    2     1     2    2.1520E+01  3.5497E-01   2.1165E+01  0.000E+00  0.000E+00  0.000E+00  1.08918E+03  1.123E+00  1.230E+01  8.610E-02  1.374E+00
   1    3    3     1     3    2.1165E+01  3.0207E-01   2.0863E+01  0.000E+00  0.000E+00  0.000E+00  1.08354E+03  1.117E+00  1.223E+01  7.337E-02  1.372E+00
   1    3    4     1     4    2.0863E+01  2.7761E-01   2.0585E+01  0.000E+00  0.000E+00  0.000E+00  1.07852E+03  1.112E+00  1.216E+01  6.751E-02  1.371E+00
   1    4    5     2     1    1.8585E+01  3.1244E-01   1.8273E+01  0.000E+00  0.000E+00  0.000E+00  1.07294E+03  1.006E+00  1.200E+01  7.800E-02  1.335E+00
   1    5    6     2     2    1.8273E+01  2.3979E-01   1.8033E+01  0.000E+00  0.000E+00  0.000E+00  1.06751E+03  9.966E-01  1.200E+01  6.000E-02  1.332E+00
   1    6    6     2     3    1.8033E+01  2.3932E-01   1.7793E+01  0.000E+00  0.000E+00  0.000E+00  1.06278E+03  9.887E-01  1.200E+01  6.000E-02  1.330E+00
   1    7    6     2     4    1.7793E+01  2.3884E-01   1.7555E+01  0.000E+00  0.000E+00  0.000E+00  1.05806E+03  9.807E-01  1.200E+01  6.000E-02  1.327E+00
   1    8    6     2     5    1.7555E+01  2.3837E-01   1.7316E+01  0.000E+00  0.000E+00  0.000E+00  1.05333E+03  9.728E-01  1.200E+01  6.000E-02  1.324E+00
   1    3    5     3     1    2.0000E+00  2.8252E-01   1.7175E+00  0.000E+00  0.000E+00  0.000E+00  1.07555E+03  1.909E+00  9.636E+00  7.227E-02  1.955E+00
   1    3    6     3     2    1.7175E+00  2.4905E-01   1.4684E+00  0.000E+00  0.000E+00  0.000E+00  1.07264E+03  1.727E+00  8.909E+00  6.682E-02  1.864E+00
   1    3    7     3     3    1.4684E+00  1.9718E-01   1.2712E+00  0.000E+00  0.000E+00  0.000E+00  1.06987E+03  1.555E+00  8.218E+00  5.547E-02  1.777E+00
   1    4    8     3     4    1.2712E+00  2.2567E-01   1.0456E+00  0.000E+00  0.000E+00  0.000E+00  1.06682E+03  1.364E+00  7.455E+00  6.709E-02  1.682E+00
   1    5    8     3     5    1.0456E+00  1.5790E-01   8.8768E-01  0.000E+00  0.000E+00  0.000E+00  1.06362E+03  1.164E+00  6.655E+00  4.991E-02  1.582E+00
   1    6    8     3     6    8.8768E-01  5.5980E-02   8.3170E-01  0.000E+00  0.000E+00  0.000E+00  1.06158E+03  1.036E+00  6.145E+00  1.844E-02  1.518E+00
   1    5   10     4     1    1.0000E+01  9.0919E-02   9.9091E+00  0.000E+00  0.000E+00  0.000E+00  1.07836E+03  6.368E-01  1.000E+01  2.500E-02  1.212E+00
   1    5    9     4     2    9.9091E+00  1.8158E-01   9.7275E+00  0.000E+00  0.000E+00  0.000E+00  1.07154E+03  6.315E-01  1.000E+01  5.000E-02  1.211E+00
   1    6    8     4     3    9.7275E+00  1.2689E-01   9.6006E+00  0.000E+00  0.000E+00  0.000E+00  1.06381E+03  6.256E-01  1.000E+01  3.500E-02  1.209E+00
   1    6    8     5     1    1.0432E+01  2.2686E-01   1.0205E+01  0.000E+00  0.000E+00  0.000E+00  1.05868E+03  6.790E-01  1.542E+01  6.166E-02  1.226E+00
   1    7    7     5     2    1.0205E+01  2.7894E-01   9.9265E+00  0.000E+00  0.000E+00  0.000E+00  1.05417E+03  6.732E-01  1.519E+01  7.594E-02  1.224E+00
   1    8    7     5     3    9.9265E+00  1.9221E-01   9.7343E+00  0.000E+00  0.000E+00  0.000E+00  1.04992E+03  6.676E-01  1.497E+01  5.241E-02  1.223E+00
   1    8    6     5     4    9.7343E+00  1.3577E-01   9.5985E+00  0.000E+00  0.000E+00  0.000E+00  1.04691E+03  6.637E-01  1.482E+01  3.706E-02  1.221E+00
   1    9    6     6     1    1.2847E+01  2.2889E-01   1.2618E+01  0.000E+00  0.000E+00  0.000E+00  1.04354E+03  8.149E-01  1.200E+01  6.000E-02  1.272E+00
   1   10    7     6     2    1.2618E+01  2.2837E-01   1.2389E+01  0.000E+00  0.000E+00  0.000E+00  1.03899E+03  8.061E-01  1.200E+01  6.000E-02  1.269E+00
   1   11    7     6     3    1.2389E+01  2.2784E-01   1.2162E+01  0.000E+00  0.000E+00  0.000E+00  1.03443E+03  7.973E-01  1.200E+01  6.000E-02  1.266E+00
   1   12    7     6     4    1.2162E+01  2.2730E-01   1.1934E+01  0.000E+00  0.000E+00  0.000E+00  1.02988E+03  7.884E-01  1.200E+01  6.000E-02  1.263E+00
   1   13    7     6     5    1.1934E+01  4.4746E-03   1.1930E+01  0.000E+00  0.000E+00  0.000E+00  1.02669E+03  7.838E-01  1.200E+01  2.400E-02  6.215E-02
   1   14    9     7     1    1.5000E+02  1.3989E+00   1.4860E+02  0.000E+00  0.000E+00  0.000E+00  1.03987E+03  2.288E+00  5.529E+01  5.593E-01  8.337E-01
   1   13    8     7     2    1.4860E+02  2.0243E+00   1.4658E+02  0.000E+00  0.000E+00  0.000E+00  1.03478E+03  2.278E+00  5.525E+01  6.147E-01  1.098E+00
   1   13    7     7     3    1.4658E+02  1.7762E+00   1.4480E+02  0.000E+00  0.000E+00  0.000E+00  1.02969E+03  2.268E+00  5.521E+01  5.583E-01  1.060E+00
   1   13    6     8     1    1.5673E+02  1.1387E+00   1.5559E+02  0.000E+00  0.000E+00  0.000E+00  1.02473E+03  2.860E+00  4.147E+01  4.226E-01  8.983E-01
   1   13    5     8     2    1.5559E+02  3.8151E-01   1.5521E+02  0.000E+00  0.000E+00  0.000E+00  1.01848E+03  2.855E+00  4.139E+01  4.218E-01  3.015E-01
   1   13    4     8     3    1.5521E+02 -1.7122E+00   1.5692E+02  0.000E+00  0.000E+00  0.000E+00  1.01223E+03  2.859E+00  4.146E+01  4.225E+00 -1.351E-01
   1   13    3     8     4    1.5692E+02 -3.2806E+00   1.6020E+02  0.000E+00  0.000E+00  0.000E+00  1.00600E+03  2.876E+00  4.170E+01  4.250E+00 -2.573E-01
   1   13    2     8     5    1.6020E+02 -2.4889E+00   1.6269E+02  0.000E+00  0.000E+00  0.000E+00  9.99771E+02  2.896E+00  4.199E+01  4.279E+00 -1.939E-01
   1   13    1     8     6    1.6269E+02 -1.9801E+00   1.6467E+02  0.000E+00  0.000E+00  0.000E+00  9.94786E+02  2.911E+00  4.220E+01  2.580E+00 -2.558E-01
   1    8    6     9     1    1.4068E+01  0.0000E+00   1.4068E+01  0.000E+00  0.000E+00  0.000E+00  1.08153E+03  2.780E+00  4.000E+00  0.000E+00  1.927E+00
   1    8    5     9     2    1.4068E+01  0.0000E+00   1.4068E+01  0.000E+00  0.000E+00  0.000E+00  1.08103E+03  2.780E+00  4.000E+00  0.000E+00  1.927E+00





UNSATURATED ZONE PACKAGE VOLUMETRIC BUDGET FOR  TIME STEP    30 STRESS PERIOD   43
  ------------------------------------------------------------------------------



     CUMULATIVE VOLUMES      L**3       RATES FOR THIS TIME STEP      L**3/T
     ------------------                 ------------------------

           IN:                                      IN:
           ---                                      ---
        INFILTRATION =  2006526213.4338          INFILTRATION =          18.4759

          OUT:                                     OUT:
          ----                                     ----
              UZF ET =  1625122543.4889                UZF ET =          26.6048
        UZF RECHARGE =    65291465.0745          UZF RECHARGE =       0.0000E+00

            IN - OUT =   316112204.8704              IN - OUT =          -8.1289

          STORAGE:                                 STORAGE:
          --------                                 --------
      STORAGE CHANGE =   316112168.8442        STORAGE CHANGE =          -8.1289

 PERCENT DISCREPANCY IS DIFFERENCE BETWEEN IN-OUT MINUS CHANGE IN STORAGE
 DIVIDED BY THE AVERAGE OF IN AND OUT TIMES 100

 PERCENT DISCREPANCY =           0.00     PERCENT DISCREPANCY =           0.00






1
  VOLUMETRIC BUDGET FOR AGRICULTURAL FIELDS AT  END OF TIME STEP   30, STRESS PERIOD  43
  ------------------------------------------------------------------------------

     CUMULATIVE VOLUMES      L**3       RATES FOR THIS TIME STEP      L**3/T
     ------------------                 ------------------------

           IN:                                      IN:
           ---                                      ---
               AG WELLS  =   890983552.0000                 AG WELLS  =       9.7256E-03
      DIVERSION SEGMENTS =   629099200.0000        DIVERSION SEGMENTS =          14.0681
           GW IRRIGATION =           0.0000             GW IRRIGATION =           0.0000
           SW IRRIGATION =           0.0000             SW IRRIGATION =           0.0000
        SYSTEM LOSSES GW =           0.0000          SYSTEM LOSSES GW =           0.0000
        SYSTEM LOSSES SW =           0.0000          SYSTEM LOSSES SW =           0.0000

                TOTAL IN =  1520082688.0000                  TOTAL IN =          14.0778

          OUT:                                     OUT:
          ----                                     ----
               AG WELLS  =           0.0000                 AG WELLS  =           0.0000
      DIVERSION SEGMENTS =           0.0000        DIVERSION SEGMENTS =           0.0000
           GW IRRIGATION =   890983552.0000             GW IRRIGATION =       9.7256E-03
           SW IRRIGATION =   629111168.0000             SW IRRIGATION =          14.0684
        SYSTEM LOSSES GW =           0.0000          SYSTEM LOSSES GW =           0.0000
        SYSTEM LOSSES SW =           0.0000          SYSTEM LOSSES SW =           0.0000

               TOTAL OUT =  1520094720.0000                 TOTAL OUT =          14.0781

                IN - OUT =      -12032.0000                  IN - OUT =      -2.8038E-04

     PERCENT DISCREPANCY =          -0.00         PERCENT DISCREPANCY =          -0.00



1
  VOLUMETRIC BUDGET FOR ENTIRE MODEL AT END OF TIME STEP   30, STRESS PERIOD  43
  ------------------------------------------------------------------------------

     CUMULATIVE VOLUMES      L**3       RATES FOR THIS TIME STEP      L**3/T
     ------------------                 ------------------------

           IN:                                      IN:
           ---                                      ---
             STORAGE     =  1351487872.0000               STORAGE     =           1.8722
       CONSTANT HEAD     =           0.0000         CONSTANT HEAD     =           0.0000
     HEAD DEP BOUNDS     =    31905084.0000       HEAD DEP BOUNDS     =           0.2901
      STREAM LEAKAGE     =  1323008640.0000        STREAM LEAKAGE     =          12.4710
        UZF RECHARGE     =    65291468.0000          UZF RECHARGE     =           0.0000
               GW ET     =           0.0000                 GW ET     =           0.0000
     SURFACE LEAKAGE     =           0.0000       SURFACE LEAKAGE     =           0.0000
           AG WELLS      =           0.0000             AG WELLS      =           0.0000

                TOTAL IN =  2771693056.0000                  TOTAL IN =          14.6332

          OUT:                                     OUT:
          ----                                     ----
             STORAGE     =   754046656.0000               STORAGE     =           4.8754
       CONSTANT HEAD     =           0.0000         CONSTANT HEAD     =           0.0000
     HEAD DEP BOUNDS     =    31826830.0000       HEAD DEP BOUNDS     =           0.2870
      STREAM LEAKAGE     =  1094843520.0000        STREAM LEAKAGE     =           9.4618
        UZF RECHARGE     =           0.0000          UZF RECHARGE     =           0.0000
               GW ET     =           0.0000                 GW ET     =           0.0000
     SURFACE LEAKAGE     =           0.0000       SURFACE LEAKAGE     =           0.0000
           AG WELLS      =   890983552.0000             AG WELLS      =       9.7256E-03

               TOTAL OUT =  2771700736.0000                 TOTAL OUT =          14.6339

                IN - OUT =       -7680.0000                  IN - OUT =      -7.0000E-04

     PERCENT DISCREPANCY =          -0.00         PERCENT DISCREPANCY =          -0.00






         TIME SUMMARY AT END OF TIME STEP   30 IN STRESS PERIOD   43
                    SECONDS     MINUTES      HOURS       DAYS        YEARS
                    -----------------------------------------------------------
   TIME STEP LENGTH  87667.      1461.1      24.352      1.0147     2.77799E-03
 STRESS PERIOD TIME 2.63000E+06  43833.      730.56      30.440     8.33397E-02
         TOTAL TIME 1.10545E+08 1.84242E+06  30707.      1279.5      3.5030    
1
1
                            STRESS PERIOD NO.   44, LENGTH =   2630000.    
                            -----------------------------------------------

                              NUMBER OF TIME STEPS =    30

                               MULTIPLIER FOR DELT =     1.000

                            INITIAL TIME STEP SIZE =   87666.66    

 REUSING NON-PARAMETER GHB CELLS FROM LAST STRESS PERIOD

      2 GHB CELLS

 REUSING STREAM SEGMENT DATA FROM LAST STRESS PERIOD



            AREAL INFILTRATION RATE
 READING ON UNIT   19 WITH FORMAT: (10F4.0)            

            1           2           3           4           5           6           7           8           9          10
 ........................................................................................................................
   1   1.2000E-09   0.000       0.000       0.000       0.000       0.000       0.000       0.000       0.000       0.000    
   2   2.1000E-09  2.0000E-09  8.0000E-10  8.5000E-09   0.000       0.000       0.000       0.000       0.000       0.000    
   3   5.0000E-10  1.1000E-09  8.8000E-09  5.5000E-09   0.000       0.000       0.000       0.000       0.000       0.000    
   4   8.5000E-09  1.1000E-09  1.1000E-09  1.1000E-09  2.0000E-09   0.000       0.000       0.000       0.000       0.000    
   5   8.5000E-09  1.1000E-09  1.1000E-09  1.1000E-09  1.1000E-09   0.000       0.000       0.000       0.000       0.000    
   6   8.5000E-09  5.2000E-09  2.1000E-09  1.1000E-09  1.5000E-09   0.000       0.000       0.000       0.000       0.000    
   7   8.5000E-09  5.2000E-09  2.1000E-09  1.2000E-09  2.0000E-09   0.000       0.000       0.000       0.000       0.000    
   8   5.0000E-10  5.2000E-09  2.1000E-09  1.2000E-09  5.0000E-09   0.000       0.000       0.000       0.000       0.000    
   9   5.0000E-10  5.2000E-09  2.1000E-09  1.2000E-09  5.0000E-09   0.000       0.000       0.000       0.000       0.000    
  10   5.0000E-10  5.2000E-09  2.1000E-09  1.2000E-09  5.8000E-09   0.000       0.000       0.000       0.000       0.000    
  11   1.0000E-10  1.1000E-09  1.1000E-09  1.2000E-09  5.0000E-09   0.000       0.000       0.000       0.000       0.000    
  12   1.1000E-09  1.1000E-09  1.1000E-09  1.1000E-09  2.0000E-09   0.000       0.000       0.000       0.000       0.000    
  13   1.1000E-09  2.2000E-09  2.2000E-09  2.1000E-09  1.0000E-09   0.000       0.000       0.000       0.000       0.000    
  14   2.0000E-10  5.5000E-09  5.5000E-09  5.2000E-09  1.0000E-09   0.000       0.000       0.000       0.000       0.000    
  15    0.000      8.8000E-09  8.8000E-09   0.000       0.000       0.000       0.000       0.000       0.000       0.000    

                  ET RATE =  4.000000E-07

 USING ET EXTINCTION DEPTH FROM PREVIOUS STRESS PERIOD. CURRENT PERIOD IS:      44

 USING EXTINCTION WATER CONTENT FROM PREVIOUS STRESS PERIOD. CURRENT PERIOD IS:      44

 USING AIR ENTRY PRESSURE FROM PREVIOUS STRESS PERIOD. CURRENT PERIOD IS:      44

 USING ROOT PRESSURE HEAD FROM PREVIOUS STRESS PERIOD. CURRENT PERIOD IS:      44

 USING ROOT ACTIVITY FROM PREVIOUS STRESS PERIOD. CURRENT PERIOD IS:      44

 PROCESSING AG STRESS PERIOD DATA

 READING AG STRESS PERIOD DATA

 READING IRRIGATION SEGMENT

 READING IRRIGATION WELL

 READING SUPPLEMENTAL WELL

 END PROCESSING AG STRESS PERIOD DATA OPTIONS
 
 SOLVING FOR HEAD 
                                                   Max.-Head-Change                         Max.-Flux-Residual
  Residual-Control   Outer-Iter.   Inner-Iter.     Column Row Layer    Maximum-Head-Change  Column Row Layer    Maximum-Flux-Residual          L2-NORM 
          0                 1           2             5    6     1       0.1251207513E-01       5    6    1         0.6738391629E+00      0.1615271673E+01
          0                 2           2             4    7     1      -0.2556230887E+00       5    6    1        -0.1374053595E+02      0.3364592534E+02
          0                 3           2             4    7     1       0.1740472857E-01       5    6    1         0.9616568178E+00      0.2351476886E+01
          0                 4           2             4    7     1      -0.6925523829E-03       5    6    1        -0.3931612568E-01      0.9617132671E-01
          0                 5           1             4    7     1       0.8539468261E-05       4    7    1         0.4976498494E-03      0.1223775444E-02

    ------------------------------------------------
       NWT REQUIRED            5 OUTER ITERATIONS 
       AND A TOTAL OF          9 INNER ITERATIONS.
    ------------------------------------------------

 NO OUTPUT CONTROL FOR STRESS PERIOD   44   TIME STEP    1
 
 SOLVING FOR HEAD 
                                                   Max.-Head-Change                         Max.-Flux-Residual
  Residual-Control   Outer-Iter.   Inner-Iter.     Column Row Layer    Maximum-Head-Change  Column Row Layer    Maximum-Flux-Residual          L2-NORM 
          0                 1           2             5    8     1       0.1917119292E-01       5    8    1         0.1041325293E+01      0.2291735443E+01
          0                 2           2             4    7     1      -0.1472370885E+00       5    8    1        -0.7952453644E+01      0.1944327190E+02
          0                 3           2             4    7     1       0.1002617487E-01       5    8    1         0.5565439073E+00      0.1360782781E+01
          0                 4           2             4    7     1      -0.3989514765E-03       5    8    1        -0.2275499572E-01      0.5564615127E-01
          0                 5           1             4    7     1       0.4919243531E-05       5    6    1         0.2878682958E-03      0.7066703595E-03

    ------------------------------------------------
       NWT REQUIRED            5 OUTER ITERATIONS 
       AND A TOTAL OF          9 INNER ITERATIONS.
    ------------------------------------------------

 NO OUTPUT CONTROL FOR STRESS PERIOD   44   TIME STEP    2
 
 SOLVING FOR HEAD 
                                                   Max.-Head-Change                         Max.-Flux-Residual
  Residual-Control   Outer-Iter.   Inner-Iter.     Column Row Layer    Maximum-Head-Change  Column Row Layer    Maximum-Flux-Residual          L2-NORM 
          0                 1           2             5    8     1       0.2245935538E-01       5    8    1         0.1221934607E+01      0.2658774117E+01
          0                 2           2             4    7     1      -0.3158452887E+00       5    8    1        -0.1701521372E+02      0.4162053780E+02
          0                 3           2             4    7     1       0.2150742140E-01       5    8    1         0.1205291461E+01      0.2918967019E+01
          0                 4           2             4    7     1      -0.8558030349E-03       5    8    1        -0.4928330874E-01      0.1193736362E+00
          0                 5           1             4    7     1       0.1055241843E-04       5    8    1         0.6236660552E-03      0.1516348267E-02

    ------------------------------------------------
       NWT REQUIRED            5 OUTER ITERATIONS 
       AND A TOTAL OF          9 INNER ITERATIONS.
    ------------------------------------------------

 NO OUTPUT CONTROL FOR STRESS PERIOD   44   TIME STEP    3
 
 SOLVING FOR HEAD 
                                                   Max.-Head-Change                         Max.-Flux-Residual
  Residual-Control   Outer-Iter.   Inner-Iter.     Column Row Layer    Maximum-Head-Change  Column Row Layer    Maximum-Flux-Residual          L2-NORM 
          0                 1           2             5    8     1       0.3047554981E-01       5    8    1         0.1665139197E+01      0.3554289200E+01
          0                 2           2             4    7     1      -0.1345924832E+00       5    8    1        -0.7321518520E+01      0.1784817662E+02
          0                 3           2             4    7     1       0.9165158261E-02       5    8    1         0.5124497253E+00      0.1249183601E+01
          0                 4           2             4    7     1      -0.3646906555E-03       5    8    1        -0.2095422561E-01      0.5108000368E-01
          0                 5           1             4    7     1       0.4496793243E-05       5    8    1         0.2652136200E-03      0.6474226468E-03

    ------------------------------------------------
       NWT REQUIRED            5 OUTER ITERATIONS 
       AND A TOTAL OF          9 INNER ITERATIONS.
    ------------------------------------------------

 NO OUTPUT CONTROL FOR STRESS PERIOD   44   TIME STEP    4
 
 SOLVING FOR HEAD 
                                                   Max.-Head-Change                         Max.-Flux-Residual
  Residual-Control   Outer-Iter.   Inner-Iter.     Column Row Layer    Maximum-Head-Change  Column Row Layer    Maximum-Flux-Residual          L2-NORM 
          0                 1           2             5    8     1       0.3286464213E-01       5    8    1         0.1796043167E+01      0.3843456547E+01
          0                 2           2             4    7     1      -0.3162751047E+00       5    8    1        -0.1708058382E+02      0.4173504784E+02
          0                 3           2             4    7     1       0.2153662609E-01       5    8    1         0.1195431454E+01      0.2921080416E+01
          0                 4           2             4    7     1      -0.8569650736E-03       5    8    1        -0.4887563919E-01      0.1194576351E+00
          0                 5           1             4    7     1       0.1056674704E-04       5    6    1         0.6182527850E-03      0.1516829452E-02

    ------------------------------------------------
       NWT REQUIRED            5 OUTER ITERATIONS 
       AND A TOTAL OF          9 INNER ITERATIONS.
    ------------------------------------------------

 NO OUTPUT CONTROL FOR STRESS PERIOD   44   TIME STEP    5
 
 SOLVING FOR HEAD 
                                                   Max.-Head-Change                         Max.-Flux-Residual
  Residual-Control   Outer-Iter.   Inner-Iter.     Column Row Layer    Maximum-Head-Change  Column Row Layer    Maximum-Flux-Residual          L2-NORM 
          0                 1           2             5    8     1       0.4037475875E-01       5    8    1         0.2209460962E+01      0.4705939151E+01
          0                 2           2             4    7     1      -0.1385138498E+00       5    8    1        -0.7570675156E+01      0.1841501920E+02
          0                 3           2             4    7     1       0.9432187835E-02       5    8    1         0.5299101435E+00      0.1288908321E+01
          0                 4           2             4    7     1      -0.3753160156E-03       5    8    1        -0.2167027465E-01      0.5270721487E-01
          0                 5           1             4    7     1       0.4627808484E-05       5    8    1         0.2744182480E-03      0.6677916996E-03

    ------------------------------------------------
       NWT REQUIRED            5 OUTER ITERATIONS 
       AND A TOTAL OF          9 INNER ITERATIONS.
    ------------------------------------------------

 NO OUTPUT CONTROL FOR STRESS PERIOD   44   TIME STEP    6
 
 SOLVING FOR HEAD 
                                                   Max.-Head-Change                         Max.-Flux-Residual
  Residual-Control   Outer-Iter.   Inner-Iter.     Column Row Layer    Maximum-Head-Change  Column Row Layer    Maximum-Flux-Residual          L2-NORM 
          0                 1           2             5    8     1       0.4233299551E-01       5    8    1         0.2316239744E+01      0.4958453167E+01
          0                 2           2             4    7     1      -0.3210659973E+00       5    8    1        -0.1737323397E+02      0.4241304976E+02
          0                 3           2             4    7     1       0.2186286158E-01       5    8    1         0.1215933902E+01      0.2968549582E+01
          0                 4           2             4    7     1      -0.8699463183E-03       5    8    1        -0.4971591735E-01      0.1213971708E+00
          0                 5           1             4    7     1       0.1072681153E-04       5    8    1         0.6289681301E-03      0.1540400618E-02

    ------------------------------------------------
       NWT REQUIRED            5 OUTER ITERATIONS 
       AND A TOTAL OF          9 INNER ITERATIONS.
    ------------------------------------------------

 NO OUTPUT CONTROL FOR STRESS PERIOD   44   TIME STEP    7
 
 SOLVING FOR HEAD 
                                                   Max.-Head-Change                         Max.-Flux-Residual
  Residual-Control   Outer-Iter.   Inner-Iter.     Column Row Layer    Maximum-Head-Change  Column Row Layer    Maximum-Flux-Residual          L2-NORM 
          0                 1           2             5    8     1       0.4946865314E-01       5    8    1         0.2708638071E+01      0.5800456503E+01
          0                 2           2             4    7     1      -0.1396582429E+00       5    8    1        -0.7664888876E+01      0.1861152715E+02
          0                 3           2             4    7     1       0.9510119346E-02       5    8    1         0.5365243289E+00      0.1302710976E+01
          0                 4           2             4    7     1      -0.3784169703E-03       5    8    1        -0.2194266750E-01      0.5327554048E-01
          0                 5           1             4    7     1       0.4666044972E-05       5    8    1         0.2779974311E-03      0.6750274591E-03

    ------------------------------------------------
       NWT REQUIRED            5 OUTER ITERATIONS 
       AND A TOTAL OF          9 INNER ITERATIONS.
    ------------------------------------------------

 NO OUTPUT CONTROL FOR STRESS PERIOD   44   TIME STEP    8
 
 SOLVING FOR HEAD 
                                                   Max.-Head-Change                         Max.-Flux-Residual
  Residual-Control   Outer-Iter.   Inner-Iter.     Column Row Layer    Maximum-Head-Change  Column Row Layer    Maximum-Flux-Residual          L2-NORM 
          0                 1           2             5    8     1       0.5097377935E-01       5    8    1         0.2790121056E+01      0.6010731222E+01
          0                 2           2             4    7     1      -0.3213959108E+00       5    8    1        -0.1742062138E+02      0.4249838528E+02
          0                 3           2             4    7     1       0.2188533529E-01       5    8    1         0.1219269515E+01      0.2974537614E+01
          0                 4           2             4    7     1      -0.8708405285E-03       5    8    1        -0.4985414036E-01      0.1216410652E+00
          0                 5           1             4    7     1       0.1073783738E-04       5    8    1         0.6308418633E-03      0.1542699533E-02

    ------------------------------------------------
       NWT REQUIRED            5 OUTER ITERATIONS 
       AND A TOTAL OF          9 INNER ITERATIONS.
    ------------------------------------------------

 NO OUTPUT CONTROL FOR STRESS PERIOD   44   TIME STEP    9
 
 SOLVING FOR HEAD 
                                                   Max.-Head-Change                         Max.-Flux-Residual
  Residual-Control   Outer-Iter.   Inner-Iter.     Column Row Layer    Maximum-Head-Change  Column Row Layer    Maximum-Flux-Residual          L2-NORM 
          0                 1           2             5    8     1       0.5766328462E-01       5    8    1         0.3157651041E+01      0.6811046816E+01
          0                 2           2             5    7     1      -0.1401315714E+00       5    8    1        -0.7709789348E+01      0.1869474620E+02
          0                 3           2             5    7     1       0.9542352986E-02       5    8    1         0.5396800778E+00      0.1308553758E+01
          0                 4           2             5    7     1      -0.3796995683E-03       5    8    1        -0.2207297102E-01      0.5351601469E-01
          0                 5           1             5    7     1       0.4681866059E-05       5    8    1         0.2797325283E-03      0.6781115750E-03

    ------------------------------------------------
       NWT REQUIRED            5 OUTER ITERATIONS 
       AND A TOTAL OF          9 INNER ITERATIONS.
    ------------------------------------------------

 NO OUTPUT CONTROL FOR STRESS PERIOD   44   TIME STEP   10
 
 SOLVING FOR HEAD 
                                                   Max.-Head-Change                         Max.-Flux-Residual
  Residual-Control   Outer-Iter.   Inner-Iter.     Column Row Layer    Maximum-Head-Change  Column Row Layer    Maximum-Flux-Residual          L2-NORM 
          0                 1           2             5    8     1       0.5875226856E-01       5    8    1         0.3215955048E+01      0.6979836819E+01
          0                 2           2             4    7     1      -0.3217412965E+00       5    8    1        -0.1746320397E+02      0.4257838598E+02
          0                 3           2             4    7     1       0.2190886119E-01       5    8    1         0.1222266397E+01      0.2980155565E+01
          0                 4           2             4    7     1      -0.8717766129E-03       5    8    1        -0.4997827391E-01      0.1218706939E+00
          0                 5           1             4    7     1       0.1074937983E-04       5    8    1         0.6325210556E-03      0.1545038592E-02

    ------------------------------------------------
       NWT REQUIRED            5 OUTER ITERATIONS 
       AND A TOTAL OF          9 INNER ITERATIONS.
    ------------------------------------------------

 NO OUTPUT CONTROL FOR STRESS PERIOD   44   TIME STEP   11
 
 SOLVING FOR HEAD 
                                                   Max.-Head-Change                         Max.-Flux-Residual
  Residual-Control   Outer-Iter.   Inner-Iter.     Column Row Layer    Maximum-Head-Change  Column Row Layer    Maximum-Flux-Residual          L2-NORM 
          0                 1           2             5    8     1       0.6505323862E-01       5    8    1         0.3561857597E+01      0.7741533850E+01
          0                 2           2             5    6     1      -0.1406869444E+00       5    8    1        -0.7750209126E+01      0.1877286651E+02
          0                 3           2             5    6     1       0.9580176022E-02       5    8    1         0.5425094738E+00      0.1314021906E+01
          0                 4           2             5    6     1      -0.3812045626E-03       5    8    1        -0.2218869343E-01      0.5373960449E-01
          0                 5           1             5    6     1       0.4700409667E-05       5    8    1         0.2811991017E-03      0.6809196509E-03

    ------------------------------------------------
       NWT REQUIRED            5 OUTER ITERATIONS 
       AND A TOTAL OF          9 INNER ITERATIONS.
    ------------------------------------------------

 NO OUTPUT CONTROL FOR STRESS PERIOD   44   TIME STEP   12
 
 SOLVING FOR HEAD 
                                                   Max.-Head-Change                         Max.-Flux-Residual
  Residual-Control   Outer-Iter.   Inner-Iter.     Column Row Layer    Maximum-Head-Change  Column Row Layer    Maximum-Flux-Residual          L2-NORM 
          0                 1           2             5    8     1       0.6577937160E-01       5    8    1         0.3599979139E+01      0.7873371061E+01
          0                 2           2             4    7     1      -0.3220983644E+00       5    8    1        -0.1750160552E+02      0.4265350384E+02
          0                 3           2             4    7     1       0.2193318137E-01       5    8    1         0.1224968548E+01      0.2985433782E+01
          0                 4           2             4    7     1      -0.8727443085E-03       5    8    1        -0.5009015081E-01      0.1220870780E+00
          0                 5           1             4    7     1       0.1076131188E-04       5    8    1         0.6340312075E-03      0.1547396772E-02

    ------------------------------------------------
       NWT REQUIRED            5 OUTER ITERATIONS 
       AND A TOTAL OF          9 INNER ITERATIONS.
    ------------------------------------------------

 NO OUTPUT CONTROL FOR STRESS PERIOD   44   TIME STEP   13
 
 SOLVING FOR HEAD 
                                                   Max.-Head-Change                         Max.-Flux-Residual
  Residual-Control   Outer-Iter.   Inner-Iter.     Column Row Layer    Maximum-Head-Change  Column Row Layer    Maximum-Flux-Residual          L2-NORM 
          0                 1           2             5    8     1       0.7174080972E-01       5    8    1         0.3927008315E+01      0.8599923270E+01
          0                 2           2             5    6     1      -0.1413284724E+00       5    8    1        -0.7786723293E+01      0.1884629587E+02
          0                 3           2             5    6     1       0.9623862179E-02       5    8    1         0.5450654865E+00      0.1319161856E+01
          0                 4           2             5    6     1      -0.3829428733E-03       5    8    1        -0.2229323440E-01      0.5395027256E-01
          0                 5           1             5    6     1       0.4721843818E-05       5    8    1         0.2825239567E-03      0.6860152906E-03

    ------------------------------------------------
       NWT REQUIRED            5 OUTER ITERATIONS 
       AND A TOTAL OF          9 INNER ITERATIONS.
    ------------------------------------------------

 NO OUTPUT CONTROL FOR STRESS PERIOD   44   TIME STEP   14
 
 SOLVING FOR HEAD 
                                                   Max.-Head-Change                         Max.-Flux-Residual
  Residual-Control   Outer-Iter.   Inner-Iter.     Column Row Layer    Maximum-Head-Change  Column Row Layer    Maximum-Flux-Residual          L2-NORM 
          0                 1           2             5    8     1       0.7214935791E-01       5    8    1         0.3947489575E+01      0.8698900494E+01
          0                 2           2             4    7     1      -0.3224637599E+00       5    8    1        -0.1753635570E+02      0.4272414236E+02
          0                 3           2             4    7     1       0.2195806754E-01       5    8    1         0.1227413327E+01      0.2990398751E+01
          0                 4           2             4    7     1      -0.8737345306E-03       5    8    1        -0.5019132712E-01      0.1222905007E+00
          0                 5           1             4    7     1       0.1077352149E-04       5    8    1         0.6353939284E-03      0.1549714081E-02

    ------------------------------------------------
       NWT REQUIRED            5 OUTER ITERATIONS 
       AND A TOTAL OF          9 INNER ITERATIONS.
    ------------------------------------------------

 NO OUTPUT CONTROL FOR STRESS PERIOD   44   TIME STEP   15
 
 SOLVING FOR HEAD 
                                                   Max.-Head-Change                         Max.-Flux-Residual
  Residual-Control   Outer-Iter.   Inner-Iter.     Column Row Layer    Maximum-Head-Change  Column Row Layer    Maximum-Flux-Residual          L2-NORM 
          0                 1           2             5    8     1       0.7781347687E-01       5    8    1         0.4258014508E+01      0.9393664770E+01
          0                 2           2             5    6     1      -0.1419145061E+00       5    8    1        -0.7819823001E+01      0.1891540715E+02
          0                 3           2             5    6     1       0.9663769440E-02       5    8    1         0.5473824940E+00      0.1323999645E+01
          0                 4           2             5    6     1      -0.3845308181E-03       5    8    1        -0.2238800002E-01      0.5414765129E-01
          0                 5           1             5    6     1       0.4741424124E-05       5    8    1         0.2837249244E-03      0.6861026016E-03

    ------------------------------------------------
       NWT REQUIRED            5 OUTER ITERATIONS 
       AND A TOTAL OF          9 INNER ITERATIONS.
    ------------------------------------------------

 NO OUTPUT CONTROL FOR STRESS PERIOD   44   TIME STEP   16
 
 SOLVING FOR HEAD 
                                                   Max.-Head-Change                         Max.-Flux-Residual
  Residual-Control   Outer-Iter.   Inner-Iter.     Column Row Layer    Maximum-Head-Change  Column Row Layer    Maximum-Flux-Residual          L2-NORM 
          0                 1           2             5    8     1       0.7794362451E-01       5    8    1         0.4263053442E+01      0.9463419401E+01
          0                 2           2             4    7     1      -0.3228345982E+00       5    8    1        -0.1756791121E+02      0.4279066831E+02
          0                 3           2             4    7     1       0.2198332338E-01       5    8    1         0.1229632944E+01      0.2995077396E+01
          0                 4           2             4    7     1      -0.8747394673E-03       5    8    1        -0.5028314408E-01      0.1224836724E+00
          0                 5           1             4    7     1       0.1078591291E-04       5    8    1         0.6366278135E-03      0.1552010336E-02

    ------------------------------------------------
       NWT REQUIRED            5 OUTER ITERATIONS 
       AND A TOTAL OF          9 INNER ITERATIONS.
    ------------------------------------------------

 NO OUTPUT CONTROL FOR STRESS PERIOD   44   TIME STEP   17
 
 SOLVING FOR HEAD 
                                                   Max.-Head-Change                         Max.-Flux-Residual
  Residual-Control   Outer-Iter.   Inner-Iter.     Column Row Layer    Maximum-Head-Change  Column Row Layer    Maximum-Flux-Residual          L2-NORM 
          0                 1           2             5    8     1       0.8334650361E-01       5    8    1         0.4559096639E+01      0.1012945828E+02
          0                 2           2             5    6     1      -0.1424513832E+00       5    8    1        -0.7849930309E+01      0.1898054193E+02
          0                 3           2             5    6     1       0.9700329350E-02       5    8    1         0.5494900388E+00      0.1328559181E+01
          0                 4           2             5    6     1      -0.3859855684E-03       5    8    1        -0.2247419857E-01      0.5433414837E-01
          0                 5           1             5    6     1       0.4759361507E-05       5    8    1         0.2848173272E-03      0.6884669383E-03

    ------------------------------------------------
       NWT REQUIRED            5 OUTER ITERATIONS 
       AND A TOTAL OF          9 INNER ITERATIONS.
    ------------------------------------------------

 NO OUTPUT CONTROL FOR STRESS PERIOD   44   TIME STEP   18
 
 SOLVING FOR HEAD 
                                                   Max.-Head-Change                         Max.-Flux-Residual
  Residual-Control   Outer-Iter.   Inner-Iter.     Column Row Layer    Maximum-Head-Change  Column Row Layer    Maximum-Flux-Residual          L2-NORM 
          0                 1           2             5    8     1       0.8323166785E-01       5    8    1         0.4550565425E+01      0.1017317583E+02
          0                 2           2             4    7     1      -0.3232083784E+00       5    8    1        -0.1759666154E+02      0.4285341257E+02
          0                 3           2             4    7     1       0.2200877871E-01       5    8    1         0.1231654868E+01      0.2999490396E+01
          0                 4           2             4    7     1      -0.8757523462E-03       5    8    1        -0.5036674521E-01      0.1226655511E+00
          0                 5           1             4    7     1       0.1079840234E-04       5    8    1         0.6377487684E-03      0.1554221051E-02

    ------------------------------------------------
       NWT REQUIRED            5 OUTER ITERATIONS 
       AND A TOTAL OF          9 INNER ITERATIONS.
    ------------------------------------------------

 NO OUTPUT CONTROL FOR STRESS PERIOD   44   TIME STEP   19
 
 SOLVING FOR HEAD 
                                                   Max.-Head-Change                         Max.-Flux-Residual
  Residual-Control   Outer-Iter.   Inner-Iter.     Column Row Layer    Maximum-Head-Change  Column Row Layer    Maximum-Flux-Residual          L2-NORM 
          0                 1           2             5    8     1       0.8840464688E-01       5    8    1         0.4833881544E+01      0.1081324591E+02
          0                 2           2             5    6     1      -0.1429445895E+00       5    8    1        -0.7877407908E+01      0.1904201111E+02
          0                 3           2             5    6     1       0.9733915463E-02       5    8    1         0.5514135079E+00      0.1332862254E+01
          0                 4           2             5    6     1      -0.3873219881E-03       5    8    1        -0.2255286839E-01      0.5451016559E-01
          0                 5           1             5    6     1       0.4775839898E-05       5    8    1         0.2858143207E-03      0.6907480701E-03

    ------------------------------------------------
       NWT REQUIRED            5 OUTER ITERATIONS 
       AND A TOTAL OF          9 INNER ITERATIONS.
    ------------------------------------------------

 NO OUTPUT CONTROL FOR STRESS PERIOD   44   TIME STEP   20
 
 SOLVING FOR HEAD 
                                                   Max.-Head-Change                         Max.-Flux-Residual
  Residual-Control   Outer-Iter.   Inner-Iter.     Column Row Layer    Maximum-Head-Change  Column Row Layer    Maximum-Flux-Residual          L2-NORM 
          0                 1           2             5    8     1       0.8807375529E-01       5    8    1         0.4813398842E+01      0.1083371335E+02
          0                 2           2             4    7     1      -0.3235829544E+00       5    8    1        -0.1762294402E+02      0.4291267427E+02
          0                 3           2             4    7     1       0.2203428751E-01       5    8    1         0.1233502885E+01      0.3003657910E+01
          0                 4           2             4    7     1      -0.8767673573E-03       5    8    1        -0.5044312045E-01      0.1228374033E+00
          0                 5           1             4    7     1       0.1081091787E-04       5    8    1         0.6387704439E-03      0.1556351094E-02

    ------------------------------------------------
       NWT REQUIRED            5 OUTER ITERATIONS 
       AND A TOTAL OF          9 INNER ITERATIONS.
    ------------------------------------------------

 NO OUTPUT CONTROL FOR STRESS PERIOD   44   TIME STEP   21
 
 SOLVING FOR HEAD 
                                                   Max.-Head-Change                         Max.-Flux-Residual
  Residual-Control   Outer-Iter.   Inner-Iter.     Column Row Layer    Maximum-Head-Change  Column Row Layer    Maximum-Flux-Residual          L2-NORM 
          0                 1           2             5    8     1       0.9304334252E-01       5    8    1         0.5085470781E+01      0.1145024875E+02
          0                 2           2             5    6     1      -0.1433989115E+00       5    8    1        -0.7902565963E+01      0.1910009727E+02
          0                 3           2             5    6     1       0.9764853714E-02       5    8    1         0.5531746114E+00      0.1336928520E+01
          0                 4           2             5    6     1      -0.3885530474E-03       5    8    1        -0.2262489745E-01      0.5467648770E-01
          0                 5           1             5    6     1       0.4791019476E-05       5    8    1         0.2867271373E-03      0.6928067660E-03

    ------------------------------------------------
       NWT REQUIRED            5 OUTER ITERATIONS 
       AND A TOTAL OF          9 INNER ITERATIONS.
    ------------------------------------------------

 NO OUTPUT CONTROL FOR STRESS PERIOD   44   TIME STEP   22
 
 SOLVING FOR HEAD 
                                                   Max.-Head-Change                         Max.-Flux-Residual
  Residual-Control   Outer-Iter.   Inner-Iter.     Column Row Layer    Maximum-Head-Change  Column Row Layer    Maximum-Flux-Residual          L2-NORM 
          0                 1           2             5    8     1       0.9252156838E-01       5    8    1         0.5054443689E+01      0.1144990784E+02
          0                 2           2             4    7     1      -0.3239565305E+00       5    8    1        -0.1764704767E+02      0.4296872300E+02
          0                 3           2             4    7     1       0.2205972759E-01       5    8    1         0.1235197374E+01      0.3007598698E+01
          0                 4           2             4    7     1      -0.8777796373E-03       5    8    1        -0.5051311798E-01      0.1229999388E+00
          0                 5           1             4    7     1       0.1082339957E-04       5    8    1         0.6397046286E-03      0.1558417936E-02

    ------------------------------------------------
       NWT REQUIRED            5 OUTER ITERATIONS 
       AND A TOTAL OF          9 INNER ITERATIONS.
    ------------------------------------------------

 NO OUTPUT CONTROL FOR STRESS PERIOD   44   TIME STEP   23
 
 SOLVING FOR HEAD 
                                                   Max.-Head-Change                         Max.-Flux-Residual
  Residual-Control   Outer-Iter.   Inner-Iter.     Column Row Layer    Maximum-Head-Change  Column Row Layer    Maximum-Flux-Residual          L2-NORM 
          0                 1           2             5    8     1       0.9731125476E-01       5    8    1         0.5316583070E+01      0.1204507547E+02
          0                 2           2             5    6     1      -0.1438185101E+00       5    8    1        -0.7925676347E+01      0.1915505807E+02
          0                 3           2             5    6     1       0.9793427425E-02       5    8    1         0.5547923797E+00      0.1340775901E+01
          0                 4           2             5    6     1      -0.3896900189E-03       5    8    1        -0.2269106408E-01      0.5483380857E-01
          0                 5           1             5    6     1       0.4805038693E-05       5    8    1         0.2875656910E-03      0.6948141386E-03

    ------------------------------------------------
       NWT REQUIRED            5 OUTER ITERATIONS 
       AND A TOTAL OF          9 INNER ITERATIONS.
    ------------------------------------------------

 NO OUTPUT CONTROL FOR STRESS PERIOD   44   TIME STEP   24
 
 SOLVING FOR HEAD 
                                                   Max.-Head-Change                         Max.-Flux-Residual
  Residual-Control   Outer-Iter.   Inner-Iter.     Column Row Layer    Maximum-Head-Change  Column Row Layer    Maximum-Flux-Residual          L2-NORM 
          0                 1           2             5    8     1       0.9662001820E-01       5    8    1         0.5276207698E+01      0.1202607612E+02
          0                 2           2             4    7     1      -0.3243275393E+00       5    8    1        -0.1766922326E+02      0.4302180095E+02
          0                 3           2             4    7     1       0.2208499229E-01       5    8    1         0.1236756010E+01      0.3011329606E+01
          0                 4           2             4    7     1      -0.8787849415E-03       5    8    1        -0.5057747257E-01      0.1231537760E+00
          0                 5           1             4    7     1       0.1083579547E-04       5    8    1         0.6405614099E-03      0.1560375111E-02

    ------------------------------------------------
       NWT REQUIRED            5 OUTER ITERATIONS 
       AND A TOTAL OF          9 INNER ITERATIONS.
    ------------------------------------------------

 NO OUTPUT CONTROL FOR STRESS PERIOD   44   TIME STEP   25
 
 SOLVING FOR HEAD 
                                                   Max.-Head-Change                         Max.-Flux-Residual
  Residual-Control   Outer-Iter.   Inner-Iter.     Column Row Layer    Maximum-Head-Change  Column Row Layer    Maximum-Flux-Residual          L2-NORM 
          0                 1           2             5    8     1       0.1012496527E+00       5    8    1         0.5529523472E+01      0.1260190266E+02
          0                 2           2             5    6     1      -0.1442070802E+00       5    8    1        -0.7946969572E+01      0.1920712743E+02
          0                 3           2             5    6     1       0.9819888211E-02       5    8    1         0.5562829478E+00      0.1344420955E+01
          0                 4           2             5    6     1      -0.3907429160E-03       5    8    1        -0.2275202821E-01      0.5498292068E-01
          0                 5           1             5    6     1       0.4818021773E-05       5    8    1         0.2883382999E-03      0.6965943462E-03

    ------------------------------------------------
       NWT REQUIRED            5 OUTER ITERATIONS 
       AND A TOTAL OF          9 INNER ITERATIONS.
    ------------------------------------------------

 NO OUTPUT CONTROL FOR STRESS PERIOD   44   TIME STEP   26
 
 SOLVING FOR HEAD 
                                                   Max.-Head-Change                         Max.-Flux-Residual
  Residual-Control   Outer-Iter.   Inner-Iter.     Column Row Layer    Maximum-Head-Change  Column Row Layer    Maximum-Flux-Residual          L2-NORM 
          0                 1           2             5    8     1       0.1004078471E+00       5    8    1         0.5480854075E+01      0.1256629302E+02
          0                 2           2             4    7     1      -0.3246947216E+00       5    8    1        -0.1768968712E+02      0.4307213993E+02
          0                 3           2             4    7     1       0.2210999595E-01       5    8    1         0.1238194064E+01      0.3014868098E+01
          0                 4           2             4    7     1      -0.8797798613E-03       5    8    1        -0.5063682143E-01      0.1232997498E+00
          0                 5           1             4    7     1       0.1084806367E-04       5    8    1         0.6413497586E-03      0.1562253070E-02

    ------------------------------------------------
       NWT REQUIRED            5 OUTER ITERATIONS 
       AND A TOTAL OF          9 INNER ITERATIONS.
    ------------------------------------------------

 NO OUTPUT CONTROL FOR STRESS PERIOD   44   TIME STEP   27
 
 SOLVING FOR HEAD 
                                                   Max.-Head-Change                         Max.-Flux-Residual
  Residual-Control   Outer-Iter.   Inner-Iter.     Column Row Layer    Maximum-Head-Change  Column Row Layer    Maximum-Flux-Residual          L2-NORM 
          0                 1           2             5    8     1       0.1048951446E+00       5    8    1         0.5726332902E+01      0.1312438585E+02
          0                 2           2             5    6     1      -0.1445847282E+00       5    8    1        -0.7967579084E+01      0.1925878608E+02
          0                 3           2             5    6     1       0.9845605217E-02       5    8    1         0.5577256567E+00      0.1348037211E+01
          0                 4           2             5    6     1      -0.3917662162E-03       5    8    1        -0.2281103489E-01      0.5513081604E-01
          0                 5           1             5    6     1       0.4830639012E-05       5    8    1         0.2890860810E-03      0.6985618891E-03

    ------------------------------------------------
       NWT REQUIRED            5 OUTER ITERATIONS 
       AND A TOTAL OF          9 INNER ITERATIONS.
    ------------------------------------------------

 NO OUTPUT CONTROL FOR STRESS PERIOD   44   TIME STEP   28
 
 SOLVING FOR HEAD 
                                                   Max.-Head-Change                         Max.-Flux-Residual
  Residual-Control   Outer-Iter.   Inner-Iter.     Column Row Layer    Maximum-Head-Change  Column Row Layer    Maximum-Flux-Residual          L2-NORM 
          0                 1           2             5    8     1       0.1039161749E+00       5    8    1         0.5670307075E+01      0.1307353600E+02
          0                 2           2             4    7     1      -0.3439428408E+00       5    8    1        -0.1872205270E+02      0.4559860705E+02
          0                 3           2             4    7     1       0.2342065458E-01       5    8    1         0.1310447980E+01      0.3191714869E+01
          0                 4           2             4    7     1      -0.9319325137E-03       5    8    1        -0.5359120701E-01      0.1305326423E+00
          0                 5           1             4    7     1       0.1149112763E-04       5    8    1         0.6787352436E-03      0.1653922089E-02

    ------------------------------------------------
       NWT REQUIRED            5 OUTER ITERATIONS 
       AND A TOTAL OF          9 INNER ITERATIONS.
    ------------------------------------------------

 NO OUTPUT CONTROL FOR STRESS PERIOD   44   TIME STEP   29
 
 SOLVING FOR HEAD 
                                                   Max.-Head-Change                         Max.-Flux-Residual
  Residual-Control   Outer-Iter.   Inner-Iter.     Column Row Layer    Maximum-Head-Change  Column Row Layer    Maximum-Flux-Residual          L2-NORM 
          0                 1           2             5    8     1       0.1088381715E+00       5    8    1         0.5938907183E+01      0.1367627547E+02
          0                 2           2             5    6     1      -0.1633928727E+00       5    8    1        -0.9001457167E+01      0.2178080081E+02
          0                 3           2             5    6     1       0.1112634715E-01       5    8    1         0.6300956904E+00      0.1524610934E+01
          0                 4           2             5    6     1      -0.4427282459E-03       5    8    1        -0.2577098016E-01      0.6235423738E-01
          0                 5           1             5    6     1       0.5459022190E-05       5    8    1         0.3265976898E-03      0.7903071979E-03

    ------------------------------------------------
       NWT REQUIRED            5 OUTER ITERATIONS 
       AND A TOTAL OF          9 INNER ITERATIONS.
    ------------------------------------------------

 NO OUTPUT CONTROL FOR STRESS PERIOD   44   TIME STEP   30



 STREAM LISTING     PERIOD     44   STEP       30

 LAYER ROW COL. STREAM  RCH.  FLOW INTO     FLOW TO   FLOW OUT OF   OVRLND.     DIRECT     STREAM       STREAM     STREAM     STREAM   STREAMBED  STREAMBED
                SEG.NO.  NO.  STRM. RCH.    AQUIFER    STRM. RCH.    RUNOFF     PRECIP       ET          HEAD       DEPTH      WIDTH   CONDCTNC.   GRADIENT

   1    1    1     1     1    1.3875E+01  1.7894E-01   1.3696E+01  0.000E+00  0.000E+00  0.000E+00  1.09404E+03  9.876E-01  9.972E+00  4.487E-02  1.329E+00
   1    2    2     1     2    1.3696E+01  2.7573E-01   1.3420E+01  0.000E+00  0.000E+00  0.000E+00  1.08904E+03  9.829E-01  9.890E+00  6.923E-02  1.328E+00
   1    3    3     1     3    1.3420E+01  2.3380E-01   1.3186E+01  0.000E+00  0.000E+00  0.000E+00  1.08340E+03  9.775E-01  9.797E+00  5.878E-02  1.326E+00
   1    3    4     1     4    1.3186E+01  2.1419E-01   1.2972E+01  0.000E+00  0.000E+00  0.000E+00  1.07838E+03  9.727E-01  9.714E+00  5.391E-02  1.324E+00
   1    4    5     2     1    1.0972E+01  2.9101E-01   1.0681E+01  0.000E+00  0.000E+00  0.000E+00  1.07266E+03  7.309E-01  1.200E+01  7.800E-02  1.244E+00
   1    5    6     2     2    1.0681E+01  2.2322E-01   1.0458E+01  0.000E+00  0.000E+00  0.000E+00  1.06723E+03  7.204E-01  1.200E+01  6.000E-02  1.240E+00
   1    6    6     2     3    1.0458E+01  2.2267E-01   1.0235E+01  0.000E+00  0.000E+00  0.000E+00  1.06250E+03  7.112E-01  1.200E+01  6.000E-02  1.237E+00
   1    7    6     2     4    1.0235E+01  2.2212E-01   1.0013E+01  0.000E+00  0.000E+00  0.000E+00  1.05778E+03  7.020E-01  1.200E+01  6.000E-02  1.234E+00
   1    8    6     2     5    1.0013E+01  2.2157E-01   9.7913E+00  0.000E+00  0.000E+00  0.000E+00  1.05305E+03  6.928E-01  1.200E+01  6.000E-02  1.231E+00
   1    3    5     3     1    2.0000E+00  2.8252E-01   1.7175E+00  0.000E+00  0.000E+00  0.000E+00  1.07555E+03  1.909E+00  9.636E+00  7.227E-02  1.955E+00
   1    3    6     3     2    1.7175E+00  2.4905E-01   1.4684E+00  0.000E+00  0.000E+00  0.000E+00  1.07264E+03  1.727E+00  8.909E+00  6.682E-02  1.864E+00
   1    3    7     3     3    1.4684E+00  1.9718E-01   1.2712E+00  0.000E+00  0.000E+00  0.000E+00  1.06987E+03  1.555E+00  8.218E+00  5.547E-02  1.777E+00
   1    4    8     3     4    1.2712E+00  2.2567E-01   1.0456E+00  0.000E+00  0.000E+00  0.000E+00  1.06682E+03  1.364E+00  7.455E+00  6.709E-02  1.682E+00
   1    5    8     3     5    1.0456E+00  1.5790E-01   8.8768E-01  0.000E+00  0.000E+00  0.000E+00  1.06362E+03  1.164E+00  6.655E+00  4.991E-02  1.582E+00
   1    6    8     3     6    8.8768E-01  5.5980E-02   8.3170E-01  0.000E+00  0.000E+00  0.000E+00  1.06158E+03  1.036E+00  6.145E+00  1.844E-02  1.518E+00
   1    5   10     4     1    1.0000E+01  9.0919E-02   9.9091E+00  0.000E+00  0.000E+00  0.000E+00  1.07836E+03  6.368E-01  1.000E+01  2.500E-02  1.212E+00
   1    5    9     4     2    9.9091E+00  1.8158E-01   9.7275E+00  0.000E+00  0.000E+00  0.000E+00  1.07154E+03  6.315E-01  1.000E+01  5.000E-02  1.211E+00
   1    6    8     4     3    9.7275E+00  1.2689E-01   9.6006E+00  0.000E+00  0.000E+00  0.000E+00  1.06381E+03  6.256E-01  1.000E+01  3.500E-02  1.209E+00
   1    6    8     5     1    1.0432E+01  2.2686E-01   1.0205E+01  0.000E+00  0.000E+00  0.000E+00  1.05868E+03  6.790E-01  1.542E+01  6.166E-02  1.226E+00
   1    7    7     5     2    1.0205E+01  2.7894E-01   9.9265E+00  0.000E+00  0.000E+00  0.000E+00  1.05417E+03  6.732E-01  1.519E+01  7.594E-02  1.224E+00
   1    8    7     5     3    9.9265E+00  1.9221E-01   9.7343E+00  0.000E+00  0.000E+00  0.000E+00  1.04992E+03  6.676E-01  1.497E+01  5.241E-02  1.223E+00
   1    8    6     5     4    9.7343E+00  1.3577E-01   9.5985E+00  0.000E+00  0.000E+00  0.000E+00  1.04691E+03  6.637E-01  1.482E+01  3.706E-02  1.221E+00
   1    9    6     6     1    9.5985E+00  2.2097E-01   9.3776E+00  0.000E+00  0.000E+00  0.000E+00  1.04341E+03  6.828E-01  1.200E+01  6.000E-02  1.228E+00
   1   10    7     6     2    9.3776E+00  2.2039E-01   9.1572E+00  0.000E+00  0.000E+00  0.000E+00  1.03885E+03  6.732E-01  1.200E+01  6.000E-02  1.224E+00
   1   11    7     6     3    9.1572E+00  2.1981E-01   8.9374E+00  0.000E+00  0.000E+00  0.000E+00  1.03430E+03  6.636E-01  1.200E+01  6.000E-02  1.221E+00
   1   12    7     6     4    8.9374E+00  2.1923E-01   8.7181E+00  0.000E+00  0.000E+00  0.000E+00  1.02974E+03  6.539E-01  1.200E+01  6.000E-02  1.218E+00
   1   13    7     6     5    8.7181E+00  1.4670E-03   8.7167E+00  0.000E+00  0.000E+00  0.000E+00  1.02656E+03  6.489E-01  1.200E+01  2.400E-02  2.038E-02
   1   14    9     7     1    1.5000E+02  1.4000E+00   1.4860E+02  0.000E+00  0.000E+00  0.000E+00  1.03987E+03  2.288E+00  5.529E+01  5.593E-01  8.344E-01
   1   13    8     7     2    1.4860E+02  2.0270E+00   1.4657E+02  0.000E+00  0.000E+00  0.000E+00  1.03478E+03  2.278E+00  5.525E+01  6.147E-01  1.099E+00
   1   13    7     7     3    1.4657E+02  1.7815E+00   1.4479E+02  0.000E+00  0.000E+00  0.000E+00  1.02969E+03  2.268E+00  5.521E+01  5.583E-01  1.064E+00
   1   13    6     8     1    1.5351E+02  1.1277E+00   1.5238E+02  0.000E+00  0.000E+00  0.000E+00  1.02471E+03  2.837E+00  4.114E+01  4.193E-01  8.966E-01
   1   13    5     8     2    1.5238E+02  3.7619E-01   1.5200E+02  0.000E+00  0.000E+00  0.000E+00  1.01846E+03  2.832E+00  4.107E+01  4.185E-01  2.996E-01
   1   13    4     8     3    1.5200E+02 -1.7346E+00   1.5374E+02  0.000E+00  0.000E+00  0.000E+00  1.01221E+03  2.837E+00  4.114E+01  4.192E+00 -1.379E-01
   1   13    3     8     4    1.5374E+02 -3.2912E+00   1.5703E+02  0.000E+00  0.000E+00  0.000E+00  1.00598E+03  2.854E+00  4.139E+01  4.218E+00 -2.601E-01
   1   13    2     8     5    1.5703E+02 -2.4956E+00   1.5953E+02  0.000E+00  0.000E+00  0.000E+00  9.99749E+02  2.874E+00  4.168E+01  4.247E+00 -1.959E-01
   1   13    1     8     6    1.5953E+02 -1.9709E+00   1.6150E+02  0.000E+00  0.000E+00  0.000E+00  9.94764E+02  2.889E+00  4.189E+01  2.562E+00 -2.565E-01
   1    8    6     9     1    9.7913E+00  0.0000E+00   9.7913E+00  0.000E+00  0.000E+00  0.000E+00  1.08099E+03  2.238E+00  4.000E+00  0.000E+00  1.746E+00
   1    8    5     9     2    9.7913E+00  0.0000E+00   9.7913E+00  0.000E+00  0.000E+00  0.000E+00  1.08049E+03  2.238E+00  4.000E+00  0.000E+00  1.746E+00





UNSATURATED ZONE PACKAGE VOLUMETRIC BUDGET FOR  TIME STEP    30 STRESS PERIOD   44
  ------------------------------------------------------------------------------



     CUMULATIVE VOLUMES      L**3       RATES FOR THIS TIME STEP      L**3/T
     ------------------                 ------------------------

           IN:                                      IN:
           ---                                      ---
        INFILTRATION =  2252114194.9514          INFILTRATION =          64.6445

          OUT:                                     OUT:
          ----                                     ----
              UZF ET =  1793725260.5690                UZF ET =          64.1075
        UZF RECHARGE =    65291465.0745          UZF RECHARGE =       0.0000E+00

            IN - OUT =   393097469.3079              IN - OUT =           0.5370

          STORAGE:                                 STORAGE:
          --------                                 --------
      STORAGE CHANGE =   393097429.0881        STORAGE CHANGE =           0.5370

 PERCENT DISCREPANCY IS DIFFERENCE BETWEEN IN-OUT MINUS CHANGE IN STORAGE
 DIVIDED BY THE AVERAGE OF IN AND OUT TIMES 100

 PERCENT DISCREPANCY =           0.00     PERCENT DISCREPANCY =           0.00






1
  VOLUMETRIC BUDGET FOR AGRICULTURAL FIELDS AT  END OF TIME STEP   30, STRESS PERIOD  44
  ------------------------------------------------------------------------------

     CUMULATIVE VOLUMES      L**3       RATES FOR THIS TIME STEP      L**3/T
     ------------------                 ------------------------

           IN:                                      IN:
           ---                                      ---
               AG WELLS  =  1083645056.0000                 AG WELLS  =          50.4455
      DIVERSION SEGMENTS =   670433408.0000        DIVERSION SEGMENTS =           9.7913
           GW IRRIGATION =           0.0000             GW IRRIGATION =           0.0000
           SW IRRIGATION =           0.0000             SW IRRIGATION =           0.0000
        SYSTEM LOSSES GW =           0.0000          SYSTEM LOSSES GW =           0.0000
        SYSTEM LOSSES SW =           0.0000          SYSTEM LOSSES SW =           0.0000

                TOTAL IN =  1754078464.0000                  TOTAL IN =          60.2368

          OUT:                                     OUT:
          ----                                     ----
               AG WELLS  =           0.0000                 AG WELLS  =           0.0000
      DIVERSION SEGMENTS =           0.0000        DIVERSION SEGMENTS =           0.0000
           GW IRRIGATION =  1083645056.0000             GW IRRIGATION =          50.4455
           SW IRRIGATION =   670446784.0000             SW IRRIGATION =           9.7915
        SYSTEM LOSSES GW =           0.0000          SYSTEM LOSSES GW =           0.0000
        SYSTEM LOSSES SW =           0.0000          SYSTEM LOSSES SW =           0.0000

               TOTAL OUT =  1754091776.0000                 TOTAL OUT =          60.2370

                IN - OUT =      -13312.0000                  IN - OUT =      -1.9836E-04

     PERCENT DISCREPANCY =          -0.00         PERCENT DISCREPANCY =          -0.00



1
  VOLUMETRIC BUDGET FOR ENTIRE MODEL AT END OF TIME STEP   30, STRESS PERIOD  44
  ------------------------------------------------------------------------------

     CUMULATIVE VOLUMES      L**3       RATES FOR THIS TIME STEP      L**3/T
     ------------------                 ------------------------

           IN:                                      IN:
           ---                                      ---
             STORAGE     =  1538078848.0000               STORAGE     =          47.9345
       CONSTANT HEAD     =           0.0000         CONSTANT HEAD     =           0.0000
     HEAD DEP BOUNDS     =    32668022.0000       HEAD DEP BOUNDS     =           0.2901
      STREAM LEAKAGE     =  1355495040.0000        STREAM LEAKAGE     =          12.0790
        UZF RECHARGE     =    65291468.0000          UZF RECHARGE     =           0.0000
               GW ET     =           0.0000                 GW ET     =           0.0000
     SURFACE LEAKAGE     =           0.0000       SURFACE LEAKAGE     =           0.0000
           AG WELLS      =           0.0000             AG WELLS      =           0.0000

                TOTAL IN =  2991533312.0000                  TOTAL IN =          60.3037

          OUT:                                     OUT:
          ----                                     ----
             STORAGE     =   755316096.0000               STORAGE     =       7.9676E-02
       CONSTANT HEAD     =           0.0000         CONSTANT HEAD     =           0.0000
     HEAD DEP BOUNDS     =    32580480.0000       HEAD DEP BOUNDS     =           0.2863
      STREAM LEAKAGE     =  1119999744.0000        STREAM LEAKAGE     =           9.4923
        UZF RECHARGE     =           0.0000          UZF RECHARGE     =           0.0000
               GW ET     =           0.0000                 GW ET     =           0.0000
     SURFACE LEAKAGE     =           0.0000       SURFACE LEAKAGE     =           0.0000
           AG WELLS      =  1083645056.0000             AG WELLS      =          50.4455

               TOTAL OUT =  2991541248.0000                 TOTAL OUT =          60.3037

                IN - OUT =       -7936.0000                  IN - OUT =       3.4332E-05

     PERCENT DISCREPANCY =          -0.00         PERCENT DISCREPANCY =           0.00






         TIME SUMMARY AT END OF TIME STEP   30 IN STRESS PERIOD   44
                    SECONDS     MINUTES      HOURS       DAYS        YEARS
                    -----------------------------------------------------------
   TIME STEP LENGTH  87667.      1461.1      24.352      1.0147     2.77799E-03
 STRESS PERIOD TIME 2.63000E+06  43833.      730.56      30.440     8.33397E-02
         TOTAL TIME 1.13175E+08 1.88626E+06  31438.      1309.9      3.5863    
1
1
                            STRESS PERIOD NO.   45, LENGTH =   2630000.    
                            -----------------------------------------------

                              NUMBER OF TIME STEPS =    30

                               MULTIPLIER FOR DELT =     1.000

                            INITIAL TIME STEP SIZE =   87666.66    

 REUSING NON-PARAMETER GHB CELLS FROM LAST STRESS PERIOD

      2 GHB CELLS

 REUSING STREAM SEGMENT DATA FROM LAST STRESS PERIOD



            AREAL INFILTRATION RATE
 READING ON UNIT   19 WITH FORMAT: (10F4.0)            

            1           2           3           4           5           6           7           8           9          10
 ........................................................................................................................
   1   1.2000E-09   0.000       0.000       0.000       0.000       0.000       0.000       0.000       0.000       0.000    
   2   2.1000E-09  2.0000E-09  8.0000E-10  8.5000E-09   0.000       0.000       0.000       0.000       0.000       0.000    
   3   5.0000E-10  1.1000E-09  8.8000E-09  5.5000E-09   0.000       0.000       0.000       0.000       0.000       0.000    
   4   8.5000E-09  1.1000E-09  1.1000E-09  1.1000E-09  2.0000E-09   0.000       0.000       0.000       0.000       0.000    
   5   8.5000E-09  1.1000E-09  1.1000E-09  1.1000E-09  1.1000E-09   0.000       0.000       0.000       0.000       0.000    
   6   8.5000E-09  5.2000E-09  2.1000E-09  1.1000E-09  1.5000E-09   0.000       0.000       0.000       0.000       0.000    
   7   8.5000E-09  5.2000E-09  2.1000E-09  1.2000E-09  2.0000E-09   0.000       0.000       0.000       0.000       0.000    
   8   5.0000E-10  5.2000E-09  2.1000E-09  1.2000E-09  5.0000E-09   0.000       0.000       0.000       0.000       0.000    
   9   5.0000E-10  5.2000E-09  2.1000E-09  1.2000E-09  5.0000E-09   0.000       0.000       0.000       0.000       0.000    
  10   5.0000E-10  5.2000E-09  2.1000E-09  1.2000E-09  5.8000E-09   0.000       0.000       0.000       0.000       0.000    
  11   1.0000E-10  1.1000E-09  1.1000E-09  1.2000E-09  5.0000E-09   0.000       0.000       0.000       0.000       0.000    
  12   1.1000E-09  1.1000E-09  1.1000E-09  1.1000E-09  2.0000E-09   0.000       0.000       0.000       0.000       0.000    
  13   1.1000E-09  2.2000E-09  2.2000E-09  2.1000E-09  1.0000E-09   0.000       0.000       0.000       0.000       0.000    
  14   2.0000E-10  5.5000E-09  5.5000E-09  5.2000E-09  1.0000E-09   0.000       0.000       0.000       0.000       0.000    
  15    0.000      8.8000E-09  8.8000E-09   0.000       0.000       0.000       0.000       0.000       0.000       0.000    

                  ET RATE =  3.250000E-07

 USING ET EXTINCTION DEPTH FROM PREVIOUS STRESS PERIOD. CURRENT PERIOD IS:      45

 USING EXTINCTION WATER CONTENT FROM PREVIOUS STRESS PERIOD. CURRENT PERIOD IS:      45

 USING AIR ENTRY PRESSURE FROM PREVIOUS STRESS PERIOD. CURRENT PERIOD IS:      45

 USING ROOT PRESSURE HEAD FROM PREVIOUS STRESS PERIOD. CURRENT PERIOD IS:      45

 USING ROOT ACTIVITY FROM PREVIOUS STRESS PERIOD. CURRENT PERIOD IS:      45

 PROCESSING AG STRESS PERIOD DATA

 READING AG STRESS PERIOD DATA

 READING IRRIGATION SEGMENT

 READING IRRIGATION WELL

 READING SUPPLEMENTAL WELL

 END PROCESSING AG STRESS PERIOD DATA OPTIONS
 
 SOLVING FOR HEAD 
                                                   Max.-Head-Change                         Max.-Flux-Residual
  Residual-Control   Outer-Iter.   Inner-Iter.     Column Row Layer    Maximum-Head-Change  Column Row Layer    Maximum-Flux-Residual          L2-NORM 
          0                 1           2             5    8     1       0.1082685327E+00       5    8    1         0.5905314178E+01      0.1366935365E+02
          0                 2           2             4    7     1      -0.2744439418E+00       5    8    1        -0.1499567840E+02      0.3646943788E+02
          0                 3           2             4    7     1       0.1868826335E-01       5    8    1         0.1049668239E+01      0.2552789346E+01
          0                 4           2             4    7     1      -0.7436251588E-03       5    8    1        -0.4293058267E-01      0.1044079210E+00
          0                 5           1             4    7     1       0.9169217684E-05       5    8    1         0.5439948704E-03      0.1323102866E-02

    ------------------------------------------------
       NWT REQUIRED            5 OUTER ITERATIONS 
       AND A TOTAL OF          9 INNER ITERATIONS.
    ------------------------------------------------

 NO OUTPUT CONTROL FOR STRESS PERIOD   45   TIME STEP    1
 
 SOLVING FOR HEAD 
                                                   Max.-Head-Change                         Max.-Flux-Residual
  Residual-Control   Outer-Iter.   Inner-Iter.     Column Row Layer    Maximum-Head-Change  Column Row Layer    Maximum-Flux-Residual          L2-NORM 
          0                 1           2             5    8     1       0.1109963202E+00       5    8    1         0.6053701476E+01      0.1402677154E+02
          0                 2           2             5    8     1      -0.4330350930E-01       5    8    1        -0.2395038895E+01      0.5652223674E+01
          0                 3           2             5    8     1       0.1570187669E-02       5    8    1         0.8962963953E-01      0.2083903804E+00
          0                 4           2             4    7     1      -0.1430544296E-02       5    8    1        -0.8189576127E-01      0.1998252770E+00
          0                 5           2             4    7     1      -0.1391561402E-02       4    7    1        -0.7890713113E-01      0.1932682147E+00
          0                 6           2             4    7     1      -0.1271055674E-02       5    8    1        -0.7207422894E-01      0.1765438785E+00
          0                 7           2             4    7     1      -0.1005139429E-02       5    8    1        -0.5699508620E-01      0.1396079221E+00
          0                 8           1             4    7     1       0.1242313692E-04       4    7    1         0.7239446563E-03      0.1773466391E-02

    ------------------------------------------------
       NWT REQUIRED            8 OUTER ITERATIONS 
       AND A TOTAL OF         15 INNER ITERATIONS.
    ------------------------------------------------

 NO OUTPUT CONTROL FOR STRESS PERIOD   45   TIME STEP    2
 
 SOLVING FOR HEAD 
                                                   Max.-Head-Change                         Max.-Flux-Residual
  Residual-Control   Outer-Iter.   Inner-Iter.     Column Row Layer    Maximum-Head-Change  Column Row Layer    Maximum-Flux-Residual          L2-NORM 
          0                 1           2             5    8     1       0.1070131854E+00       5    8    1         0.5831929311E+01      0.1363910977E+02
          0                 2           2             5    7     1      -0.2026227363E+00       5    8    1        -0.1111104732E+02      0.2698128993E+02
          0                 3           2             5    7     1       0.1379767461E-01       5    8    1         0.7777634127E+00      0.1888646660E+01
          0                 4           2             5    7     1      -0.5490232503E-03       5    8    1        -0.3181061537E-01      0.7724479169E-01
          0                 5           1             5    7     1       0.6769702295E-05       5    8    1         0.4031384883E-03      0.9788911681E-03

    ------------------------------------------------
       NWT REQUIRED            5 OUTER ITERATIONS 
       AND A TOTAL OF          9 INNER ITERATIONS.
    ------------------------------------------------

 NO OUTPUT CONTROL FOR STRESS PERIOD   45   TIME STEP    3
 
 SOLVING FOR HEAD 
                                                   Max.-Head-Change                         Max.-Flux-Residual
  Residual-Control   Outer-Iter.   Inner-Iter.     Column Row Layer    Maximum-Head-Change  Column Row Layer    Maximum-Flux-Residual          L2-NORM 
          0                 1           2             5    8     1       0.1077977338E+00       5    8    1         0.5873373895E+01      0.1377310479E+02
          0                 2           2             5    8     1      -0.6144960404E-01       5    8    1        -0.3393198606E+01      0.8108769603E+01
          0                 3           2             5    8     1       0.4184480657E-02       5    8    1         0.2375233885E+00      0.5675541617E+00
          0                 4           2             5    8     1      -0.1665044448E-03       5    8    1        -0.9714722986E-02      0.2320940545E-01
          0                 5           1             5    8     1       0.2053071760E-05       5    8    1         0.1231154838E-03      0.2940393798E-03

    ------------------------------------------------
       NWT REQUIRED            5 OUTER ITERATIONS 
       AND A TOTAL OF          9 INNER ITERATIONS.
    ------------------------------------------------

 NO OUTPUT CONTROL FOR STRESS PERIOD   45   TIME STEP    4
 
 SOLVING FOR HEAD 
                                                   Max.-Head-Change                         Max.-Flux-Residual
  Residual-Control   Outer-Iter.   Inner-Iter.     Column Row Layer    Maximum-Head-Change  Column Row Layer    Maximum-Flux-Residual          L2-NORM 
          0                 1           2             5    8     1       0.1044153543E+00       5    8    1         0.5684996851E+01      0.1344651908E+02
          0                 2           2             4    7     1      -0.2124446010E+00       5    8    1        -0.1161999213E+02      0.2825564932E+02
          0                 3           2             4    7     1       0.1446648427E-01       5    8    1         0.8133885963E+00      0.1977849550E+01
          0                 4           2             4    7     1      -0.5756359218E-03       5    8    1        -0.3326769189E-01      0.8089326253E-01
          0                 5           1             4    7     1       0.7097838892E-05       5    8    1         0.4216041038E-03      0.1025129047E-02

    ------------------------------------------------
       NWT REQUIRED            5 OUTER ITERATIONS 
       AND A TOTAL OF          9 INNER ITERATIONS.
    ------------------------------------------------

 NO OUTPUT CONTROL FOR STRESS PERIOD   45   TIME STEP    5
 
 SOLVING FOR HEAD 
                                                   Max.-Head-Change                         Max.-Flux-Residual
  Residual-Control   Outer-Iter.   Inner-Iter.     Column Row Layer    Maximum-Head-Change  Column Row Layer    Maximum-Flux-Residual          L2-NORM 
          0                 1           2             5    8     1       0.1056933818E+00       5    8    1         0.5753891800E+01      0.1362666303E+02
          0                 2           2             5    8     1      -0.5845874957E-01       5    8    1        -0.3227831844E+01      0.7728982770E+01
          0                 3           2             5    8     1       0.3980816038E-02       5    8    1         0.2259478076E+00      0.5409683102E+00
          0                 4           2             5    8     1      -0.1584004318E-03       5    8    1        -0.9241280609E-02      0.2212215236E-01
          0                 5           1             5    8     1       0.1953146013E-05       5    8    1         0.1171155031E-03      0.2803289878E-03

    ------------------------------------------------
       NWT REQUIRED            5 OUTER ITERATIONS 
       AND A TOTAL OF          9 INNER ITERATIONS.
    ------------------------------------------------

 NO OUTPUT CONTROL FOR STRESS PERIOD   45   TIME STEP    6
 
 SOLVING FOR HEAD 
                                                   Max.-Head-Change                         Max.-Flux-Residual
  Residual-Control   Outer-Iter.   Inner-Iter.     Column Row Layer    Maximum-Head-Change  Column Row Layer    Maximum-Flux-Residual          L2-NORM 
          0                 1           2             5    8     1       0.1024071432E+00       5    8    1         0.5571064440E+01      0.1330679238E+02
          0                 2           2             4    7     1      -0.2098001156E+00       5    8    1        -0.1145608752E+02      0.2787759712E+02
          0                 3           2             4    7     1       0.1428640664E-01       5    8    1         0.8019156527E+00      0.1951386905E+01
          0                 4           2             4    7     1      -0.5684704548E-03       5    8    1        -0.3279844607E-01      0.7981099897E-01
          0                 5           1             4    7     1       0.7009485622E-05       5    8    1         0.4156573341E-03      0.1011441489E-02

    ------------------------------------------------
       NWT REQUIRED            5 OUTER ITERATIONS 
       AND A TOTAL OF          9 INNER ITERATIONS.
    ------------------------------------------------

 NO OUTPUT CONTROL FOR STRESS PERIOD   45   TIME STEP    7
 
 SOLVING FOR HEAD 
                                                   Max.-Head-Change                         Max.-Flux-Residual
  Residual-Control   Outer-Iter.   Inner-Iter.     Column Row Layer    Maximum-Head-Change  Column Row Layer    Maximum-Flux-Residual          L2-NORM 
          0                 1           2             5    8     1       0.1037725628E+00       5    8    1         0.5644988931E+01      0.1348929661E+02
          0                 2           2             5    6     1      -0.5908372578E-01       5    8    1        -0.3261018711E+01      0.7830429077E+01
          0                 3           2             5    6     1       0.4023374885E-02       5    8    1         0.2282708824E+00      0.5480695229E+00
          0                 4           2             5    6     1      -0.1600938868E-03       5    8    1        -0.9336294537E-02      0.2241260007E-01
          0                 5           1             5    6     1       0.1974024122E-05       5    8    1         0.1183196296E-03      0.2840071897E-03

    ------------------------------------------------
       NWT REQUIRED            5 OUTER ITERATIONS 
       AND A TOTAL OF          9 INNER ITERATIONS.
    ------------------------------------------------

 NO OUTPUT CONTROL FOR STRESS PERIOD   45   TIME STEP    8
 
 SOLVING FOR HEAD 
                                                   Max.-Head-Change                         Max.-Flux-Residual
  Residual-Control   Outer-Iter.   Inner-Iter.     Column Row Layer    Maximum-Head-Change  Column Row Layer    Maximum-Flux-Residual          L2-NORM 
          0                 1           2             5    8     1       0.1006709953E+00       5    8    1         0.5472541213E+01      0.1318624858E+02
          0                 2           2             4    7     1      -0.2108055927E+00       5    8    1        -0.1149058222E+02      0.2798226771E+02
          0                 3           2             4    7     1       0.1435487036E-01       5    8    1         0.8043287852E+00      0.1958712285E+01
          0                 4           2             4    7     1      -0.5711947163E-03       5    8    1        -0.3289700130E-01      0.8011049832E-01
          0                 5           1             4    7     1       0.7043076855E-05       5    8    1         0.4168966775E-03      0.1015223443E-02

    ------------------------------------------------
       NWT REQUIRED            5 OUTER ITERATIONS 
       AND A TOTAL OF          9 INNER ITERATIONS.
    ------------------------------------------------

 NO OUTPUT CONTROL FOR STRESS PERIOD   45   TIME STEP    9
 
 SOLVING FOR HEAD 
                                                   Max.-Head-Change                         Max.-Flux-Residual
  Residual-Control   Outer-Iter.   Inner-Iter.     Column Row Layer    Maximum-Head-Change  Column Row Layer    Maximum-Flux-Residual          L2-NORM 
          0                 1           2             5    8     1       0.1022073004E+00       5    8    1         0.5556062860E+01      0.1338086862E+02
          0                 2           2             5    6     1      -0.5871214020E-01       5    8    1        -0.3239259333E+01      0.7794843274E+01
          0                 3           2             5    6     1       0.3998071458E-02       5    8    1         0.2267477431E+00      0.5455783906E+00
          0                 4           2             5    6     1      -0.1590870392E-03       5    8    1        -0.9273997974E-02      0.2231072052E-01
          0                 5           1             5    6     1       0.1961609406E-05       5    8    1         0.1175301363E-03      0.2826867914E-03

    ------------------------------------------------
       NWT REQUIRED            5 OUTER ITERATIONS 
       AND A TOTAL OF          9 INNER ITERATIONS.
    ------------------------------------------------

 NO OUTPUT CONTROL FOR STRESS PERIOD   45   TIME STEP   10
 
 SOLVING FOR HEAD 
                                                   Max.-Head-Change                         Max.-Flux-Residual
  Residual-Control   Outer-Iter.   Inner-Iter.     Column Row Layer    Maximum-Head-Change  Column Row Layer    Maximum-Flux-Residual          L2-NORM 
          0                 1           2             5    8     1       0.9923352200E-01       5    8    1         0.5390819060E+01      0.1308895831E+02
          0                 2           2             4    7     1      -0.2107290206E+00       5    8    1        -0.1146950793E+02      0.2794793475E+02
          0                 3           2             4    7     1       0.1434965323E-01       5    8    1         0.8028503452E+00      0.1956306218E+01
          0                 4           2             4    7     1      -0.5709871357E-03       5    8    1        -0.3283621135E-01      0.8001185607E-01
          0                 5           1             4    7     1       0.7040517204E-05       5    8    1         0.4161044517E-03      0.1013978037E-02

    ------------------------------------------------
       NWT REQUIRED            5 OUTER ITERATIONS 
       AND A TOTAL OF          9 INNER ITERATIONS.
    ------------------------------------------------

 NO OUTPUT CONTROL FOR STRESS PERIOD   45   TIME STEP   11
 
 SOLVING FOR HEAD 
                                                   Max.-Head-Change                         Max.-Flux-Residual
  Residual-Control   Outer-Iter.   Inner-Iter.     Column Row Layer    Maximum-Head-Change  Column Row Layer    Maximum-Flux-Residual          L2-NORM 
          0                 1           2             5    8     1       0.1008871783E+00       5    8    1         0.5480954398E+01      0.1329077808E+02
          0                 2           2             5    6     1      -0.5866313177E-01       5    8    1        -0.3235488032E+01      0.7800733617E+01
          0                 3           2             5    6     1       0.3994734196E-02       5    8    1         0.2264837592E+00      0.5459906065E+00
          0                 4           2             5    6     1      -0.1589542463E-03       5    8    1        -0.9263200981E-02      0.2232755925E-01
          0                 5           1             5    6     1       0.1959972197E-05       5    8    1         0.1173933138E-03      0.2829242449E-03

    ------------------------------------------------
       NWT REQUIRED            5 OUTER ITERATIONS 
       AND A TOTAL OF          9 INNER ITERATIONS.
    ------------------------------------------------

 NO OUTPUT CONTROL FOR STRESS PERIOD   45   TIME STEP   12
 
 SOLVING FOR HEAD 
                                                   Max.-Head-Change                         Max.-Flux-Residual
  Residual-Control   Outer-Iter.   Inner-Iter.     Column Row Layer    Maximum-Head-Change  Column Row Layer    Maximum-Flux-Residual          L2-NORM 
          0                 1           2             5    8     1       0.9803103584E-01       5    8    1         0.5322327946E+01      0.1300951017E+02
          0                 2           2             4    7     1      -0.2109487689E+00       5    8    1        -0.1146641266E+02      0.2795525269E+02
          0                 3           2             4    7     1       0.1436461407E-01       5    8    1         0.8026307254E+00      0.1956816066E+01
          0                 4           2             4    7     1      -0.5715824568E-03       5    8    1        -0.3282693964E-01      0.8003249322E-01
          0                 5           1             4    7     1       0.7047857984E-05       5    8    1         0.4159673090E-03      0.1014211860E-02

    ------------------------------------------------
       NWT REQUIRED            5 OUTER ITERATIONS 
       AND A TOTAL OF          9 INNER ITERATIONS.
    ------------------------------------------------

 NO OUTPUT CONTROL FOR STRESS PERIOD   45   TIME STEP   13
 
 SOLVING FOR HEAD 
                                                   Max.-Head-Change                         Max.-Flux-Residual
  Residual-Control   Outer-Iter.   Inner-Iter.     Column Row Layer    Maximum-Head-Change  Column Row Layer    Maximum-Flux-Residual          L2-NORM 
          0                 1           2             5    8     1       0.9979298437E-01       5    8    1         0.5418552194E+01      0.1321817285E+02
          0                 2           2             5    6     1      -0.5854548040E-01       5    8    1        -0.3228159363E+01      0.7795855716E+01
          0                 3           2             5    6     1       0.3986722623E-02       5    8    1         0.2259707599E+00      0.5456489085E+00
          0                 4           2             5    6     1      -0.1586354579E-03       5    8    1        -0.9242219234E-02      0.2231205853E-01
          0                 5           1             5    6     1       0.1956040924E-05       5    8    1         0.1171273907E-03      0.2851929439E-03

    ------------------------------------------------
       NWT REQUIRED            5 OUTER ITERATIONS 
       AND A TOTAL OF          9 INNER ITERATIONS.
    ------------------------------------------------

 NO OUTPUT CONTROL FOR STRESS PERIOD   45   TIME STEP   14
 
 SOLVING FOR HEAD 
                                                   Max.-Head-Change                         Max.-Flux-Residual
  Residual-Control   Outer-Iter.   Inner-Iter.     Column Row Layer    Maximum-Head-Change  Column Row Layer    Maximum-Flux-Residual          L2-NORM 
          0                 1           2             5    8     1       0.9703454238E-01       5    8    1         0.5265420569E+01      0.1294582067E+02
          0                 2           2             4    7     1      -0.2110657049E+00       5    8    1        -0.1145962917E+02      0.2795149503E+02
          0                 3           2             4    7     1       0.1437257427E-01       5    8    1         0.8021533592E+00      0.1956551062E+01
          0                 4           2             4    7     1      -0.5718992139E-03       5    8    1        -0.3280716744E-01      0.8002148271E-01
          0                 5           1             4    7     1       0.7051763717E-05       5    6    1         0.4157026292E-03      0.1014058084E-02

    ------------------------------------------------
       NWT REQUIRED            5 OUTER ITERATIONS 
       AND A TOTAL OF          9 INNER ITERATIONS.
    ------------------------------------------------

 NO OUTPUT CONTROL FOR STRESS PERIOD   45   TIME STEP   15
 
 SOLVING FOR HEAD 
                                                   Max.-Head-Change                         Max.-Flux-Residual
  Residual-Control   Outer-Iter.   Inner-Iter.     Column Row Layer    Maximum-Head-Change  Column Row Layer    Maximum-Flux-Residual          L2-NORM 
          0                 1           2             5    8     1       0.9888653951E-01       5    8    1         0.5366707021E+01      0.1315992026E+02
          0                 2           2             5    6     1      -0.5846947036E-01       5    8    1        -0.3223292099E+01      0.7795223226E+01
          0                 3           2             5    6     1       0.3981546645E-02       5    8    1         0.2256300566E+00      0.5456044491E+00
          0                 4           2             5    6     1      -0.1584295007E-03       5    8    1        -0.9228284429E-02      0.2231174152E-01
          0                 5           1             5    6     1       0.1953501436E-05       5    8    1         0.1169508059E-03      0.2826907333E-03

    ------------------------------------------------
       NWT REQUIRED            5 OUTER ITERATIONS 
       AND A TOTAL OF          9 INNER ITERATIONS.
    ------------------------------------------------

 NO OUTPUT CONTROL FOR STRESS PERIOD   45   TIME STEP   16
 
 SOLVING FOR HEAD 
                                                   Max.-Head-Change                         Max.-Flux-Residual
  Residual-Control   Outer-Iter.   Inner-Iter.     Column Row Layer    Maximum-Head-Change  Column Row Layer    Maximum-Flux-Residual          L2-NORM 
          0                 1           2             5    8     1       0.9621258847E-01       5    8    1         0.5218323554E+01      0.1289538407E+02
          0                 2           2             4    7     1      -0.2111977135E+00       5    8    1        -0.1145523814E+02      0.2795186427E+02
          0                 3           2             4    7     1       0.1438156108E-01       5    8    1         0.8018437693E+00      0.1956575216E+01
          0                 4           2             4    7     1      -0.5722568191E-03       5    8    1        -0.3279428774E-01      0.8002234825E-01
          0                 5           1             4    7     1       0.7056173181E-05       5    6    1         0.4155554129E-03      0.1014068087E-02

    ------------------------------------------------
       NWT REQUIRED            5 OUTER ITERATIONS 
       AND A TOTAL OF          9 INNER ITERATIONS.
    ------------------------------------------------

 NO OUTPUT CONTROL FOR STRESS PERIOD   45   TIME STEP   17
 
 SOLVING FOR HEAD 
                                                   Max.-Head-Change                         Max.-Flux-Residual
  Residual-Control   Outer-Iter.   Inner-Iter.     Column Row Layer    Maximum-Head-Change  Column Row Layer    Maximum-Flux-Residual          L2-NORM 
          0                 1           2             5    8     1       0.9814237919E-01       5    8    1         0.5323979536E+01      0.1311408867E+02
          0                 2           2             5    6     1      -0.5840002760E-01       5    8    1        -0.3218927227E+01      0.7794310200E+01
          0                 3           2             5    6     1       0.3976817867E-02       5    8    1         0.2253245197E+00      0.5455402568E+00
          0                 4           2             5    6     1      -0.1582413382E-03       5    8    1        -0.9215787937E-02      0.2230901204E-01
          0                 5           1             5    6     1       0.1951181497E-05       5    8    1         0.1167924415E-03      0.2826572771E-03

    ------------------------------------------------
       NWT REQUIRED            5 OUTER ITERATIONS 
       AND A TOTAL OF          9 INNER ITERATIONS.
    ------------------------------------------------

 NO OUTPUT CONTROL FOR STRESS PERIOD   45   TIME STEP   18
 
 SOLVING FOR HEAD 
                                                   Max.-Head-Change                         Max.-Flux-Residual
  Residual-Control   Outer-Iter.   Inner-Iter.     Column Row Layer    Maximum-Head-Change  Column Row Layer    Maximum-Flux-Residual          L2-NORM 
          0                 1           2             5    8     1       0.9554048539E-01       5    8    1         0.5179643313E+01      0.1285630804E+02
          0                 2           2             4    7     1      -0.2113120019E+00       5    8    1        -0.1145127679E+02      0.2795180815E+02
          0                 3           2             4    7     1       0.1438934146E-01       5    8    1         0.8015645288E+00      0.1956568968E+01
          0                 4           2             4    7     1      -0.5725664185E-03       5    8    1        -0.3278267614E-01      0.8002186210E-01
          0                 5           1             4    7     1       0.7059990423E-05       5    6    1         0.4154111843E-03      0.1014045011E-02

    ------------------------------------------------
       NWT REQUIRED            5 OUTER ITERATIONS 
       AND A TOTAL OF          9 INNER ITERATIONS.
    ------------------------------------------------

 NO OUTPUT CONTROL FOR STRESS PERIOD   45   TIME STEP   19
 
 SOLVING FOR HEAD 
                                                   Max.-Head-Change                         Max.-Flux-Residual
  Residual-Control   Outer-Iter.   Inner-Iter.     Column Row Layer    Maximum-Head-Change  Column Row Layer    Maximum-Flux-Residual          L2-NORM 
          0                 1           2             5    8     1       0.9753662184E-01       5    8    1         0.5289023921E+01      0.1307883057E+02
          0                 2           2             5    6     1      -0.5834482257E-01       5    8    1        -0.3215458741E+01      0.7794301313E+01
          0                 3           2             5    6     1       0.3973058616E-02       5    8    1         0.2250817286E+00      0.5455394015E+00
          0                 4           2             5    6     1      -0.1580917543E-03       5    8    1        -0.9205857754E-02      0.2230901062E-01
          0                 5           1             5    6     1       0.1949336949E-05       5    8    1         0.1166665870E-03      0.2826821981E-03

    ------------------------------------------------
       NWT REQUIRED            5 OUTER ITERATIONS 
       AND A TOTAL OF          9 INNER ITERATIONS.
    ------------------------------------------------

 NO OUTPUT CONTROL FOR STRESS PERIOD   45   TIME STEP   20
 
 SOLVING FOR HEAD 
                                                   Max.-Head-Change                         Max.-Flux-Residual
  Residual-Control   Outer-Iter.   Inner-Iter.     Column Row Layer    Maximum-Head-Change  Column Row Layer    Maximum-Flux-Residual          L2-NORM 
          0                 1           2             5    8     1       0.9499654686E-01       5    8    1         0.5148158437E+01      0.1282694897E+02
          0                 2           2             4    7     1      -0.2114195945E+00       5    8    1        -0.1144815704E+02      0.2795255447E+02
          0                 3           2             4    7     1       0.1439666612E-01       5    8    1         0.8013441806E+00      0.1956617576E+01
          0                 4           2             4    7     1      -0.5728578830E-03       5    8    1        -0.3277347193E-01      0.8002354565E-01
          0                 5           1             4    7     1       0.7063584531E-05       5    6    1         0.4152810106E-03      0.1014059787E-02

    ------------------------------------------------
       NWT REQUIRED            5 OUTER ITERATIONS 
       AND A TOTAL OF          9 INNER ITERATIONS.
    ------------------------------------------------

 NO OUTPUT CONTROL FOR STRESS PERIOD   45   TIME STEP   21
 
 SOLVING FOR HEAD 
                                                   Max.-Head-Change                         Max.-Flux-Residual
  Residual-Control   Outer-Iter.   Inner-Iter.     Column Row Layer    Maximum-Head-Change  Column Row Layer    Maximum-Flux-Residual          L2-NORM 
          0                 1           2             5    8     1       0.9704960261E-01       5    8    1         0.5260732803E+01      0.1305264750E+02
          0                 2           2             5    7     1      -0.5831829119E-01       5    8    1        -0.3212621171E+01      0.7794734259E+01
          0                 3           2             5    7     1       0.3971248574E-02       5    8    1         0.2248831007E+00      0.5455696207E+00
          0                 4           2             5    7     1      -0.1580197470E-03       5    8    1        -0.9197733849E-02      0.2231021187E-01
          0                 5           1             5    7     1       0.1948454048E-05       5    8    1         0.1165636409E-03      0.2826345624E-03

    ------------------------------------------------
       NWT REQUIRED            5 OUTER ITERATIONS 
       AND A TOTAL OF          9 INNER ITERATIONS.
    ------------------------------------------------

 NO OUTPUT CONTROL FOR STRESS PERIOD   45   TIME STEP   22
 
 SOLVING FOR HEAD 
                                                   Max.-Head-Change                         Max.-Flux-Residual
  Residual-Control   Outer-Iter.   Inner-Iter.     Column Row Layer    Maximum-Head-Change  Column Row Layer    Maximum-Flux-Residual          L2-NORM 
          0                 1           2             5    8     1       0.9456244323E-01       5    8    1         0.5122836650E+01      0.1280591334E+02
          0                 2           2             4    7     1      -0.2115184568E+00       5    8    1        -0.1144561544E+02      0.2795364139E+02
          0                 3           2             4    7     1       0.1440339646E-01       5    8    1         0.8011633853E+00      0.1956689460E+01
          0                 4           2             4    7     1      -0.5731256983E-03       5    8    1        -0.3276579673E-01      0.8002611174E-01
          0                 5           1             4    7     1       0.7066886392E-05       5    6    1         0.4151704434E-03      0.1014072032E-02

    ------------------------------------------------
       NWT REQUIRED            5 OUTER ITERATIONS 
       AND A TOTAL OF          9 INNER ITERATIONS.
    ------------------------------------------------

 NO OUTPUT CONTROL FOR STRESS PERIOD   45   TIME STEP   23
 
 SOLVING FOR HEAD 
                                                   Max.-Head-Change                         Max.-Flux-Residual
  Residual-Control   Outer-Iter.   Inner-Iter.     Column Row Layer    Maximum-Head-Change  Column Row Layer    Maximum-Flux-Residual          L2-NORM 
          0                 1           2             5    8     1       0.9666420678E-01       5    8    1         0.5238142996E+01      0.1303425102E+02
          0                 2           2             5    7     1      -0.5833956765E-01       5    8    1        -0.3210365169E+01      0.7795648807E+01
          0                 3           2             5    7     1       0.3972697173E-02       5    8    1         0.2247251816E+00      0.5456357687E+00
          0                 4           2             5    7     1      -0.1580773889E-03       5    8    1        -0.9191274962E-02      0.2231333719E-01
          0                 5           1             5    7     1       0.1949164558E-05       5    8    1         0.1164817659E-03      0.2827622097E-03

    ------------------------------------------------
       NWT REQUIRED            5 OUTER ITERATIONS 
       AND A TOTAL OF          9 INNER ITERATIONS.
    ------------------------------------------------

 NO OUTPUT CONTROL FOR STRESS PERIOD   45   TIME STEP   24
 
 SOLVING FOR HEAD 
                                                   Max.-Head-Change                         Max.-Flux-Residual
  Residual-Control   Outer-Iter.   Inner-Iter.     Column Row Layer    Maximum-Head-Change  Column Row Layer    Maximum-Flux-Residual          L2-NORM 
          0                 1           2             5    8     1       0.9422269357E-01       5    8    1         0.5102807581E+01      0.1279202555E+02
          0                 2           2             4    7     1      -0.2116103771E+00       5    8    1        -0.1144361550E+02      0.2795513201E+02
          0                 3           2             4    7     1       0.1440965427E-01       5    8    1         0.8010207916E+00      0.1956790752E+01
          0                 4           2             4    7     1      -0.5733747099E-03       5    8    1        -0.3275971197E-01      0.8003001657E-01
          0                 5           1             4    7     1       0.7069956943E-05       5    6    1         0.4150799864E-03      0.1014123417E-02

    ------------------------------------------------
       NWT REQUIRED            5 OUTER ITERATIONS 
       AND A TOTAL OF          9 INNER ITERATIONS.
    ------------------------------------------------

 NO OUTPUT CONTROL FOR STRESS PERIOD   45   TIME STEP   25
 
 SOLVING FOR HEAD 
                                                   Max.-Head-Change                         Max.-Flux-Residual
  Residual-Control   Outer-Iter.   Inner-Iter.     Column Row Layer    Maximum-Head-Change  Column Row Layer    Maximum-Flux-Residual          L2-NORM 
          0                 1           2             5    8     1       0.9636646337E-01       5    8    1         0.5220468976E+01      0.1302256899E+02
          0                 2           2             5    7     1      -0.5836142369E-01       5    8    1        -0.3208597400E+01      0.7796948207E+01
          0                 3           2             5    7     1       0.3974185265E-02       5    8    1         0.2246014384E+00      0.5457264214E+00
          0                 4           2             5    7     1      -0.1581366030E-03       5    8    1        -0.9186213837E-02      0.2231695341E-01
          0                 5           1             5    7     1       0.1949895006E-05       5    8    1         0.1164176288E-03      0.2828045193E-03

    ------------------------------------------------
       NWT REQUIRED            5 OUTER ITERATIONS 
       AND A TOTAL OF          9 INNER ITERATIONS.
    ------------------------------------------------

 NO OUTPUT CONTROL FOR STRESS PERIOD   45   TIME STEP   26
 
 SOLVING FOR HEAD 
                                                   Max.-Head-Change                         Max.-Flux-Residual
  Residual-Control   Outer-Iter.   Inner-Iter.     Column Row Layer    Maximum-Head-Change  Column Row Layer    Maximum-Flux-Residual          L2-NORM 
          0                 1           2             5    8     1       0.9396398656E-01       5    8    1         0.5087323115E+01      0.1278429624E+02
          0                 2           2             4    7     1      -0.2116958507E+00       5    8    1        -0.1144206716E+02      0.2795693662E+02
          0                 3           2             4    7     1       0.1441547323E-01       5    8    1         0.8009100540E+00      0.1956913754E+01
          0                 4           2             4    7     1      -0.5736062592E-03       5    8    1        -0.3275495414E-01      0.8003477549E-01
          0                 5           1             4    7     1       0.7072812089E-05       5    6    1         0.4150064801E-03      0.1014178745E-02

    ------------------------------------------------
       NWT REQUIRED            5 OUTER ITERATIONS 
       AND A TOTAL OF          9 INNER ITERATIONS.
    ------------------------------------------------

 NO OUTPUT CONTROL FOR STRESS PERIOD   45   TIME STEP   27
 
 SOLVING FOR HEAD 
                                                   Max.-Head-Change                         Max.-Flux-Residual
  Residual-Control   Outer-Iter.   Inner-Iter.     Column Row Layer    Maximum-Head-Change  Column Row Layer    Maximum-Flux-Residual          L2-NORM 
          0                 1           2             5    8     1       0.9614351634E-01       5    8    1         0.5206989081E+01      0.1301664826E+02
          0                 2           2             5    7     1      -0.5838392318E-01       5    8    1        -0.3207249514E+01      0.7798582319E+01
          0                 3           2             5    7     1       0.3975717195E-02       5    8    1         0.2245070863E+00      0.5458407197E+00
          0                 4           2             5    7     1      -0.1581975605E-03       5    8    1        -0.9182354841E-02      0.2232159314E-01
          0                 5           1             5    7     1       0.1950646514E-05       5    8    1         0.1163687434E-03      0.2828583727E-03

    ------------------------------------------------
       NWT REQUIRED            5 OUTER ITERATIONS 
       AND A TOTAL OF          9 INNER ITERATIONS.
    ------------------------------------------------

 NO OUTPUT CONTROL FOR STRESS PERIOD   45   TIME STEP   28
 
 SOLVING FOR HEAD 
                                                   Max.-Head-Change                         Max.-Flux-Residual
  Residual-Control   Outer-Iter.   Inner-Iter.     Column Row Layer    Maximum-Head-Change  Column Row Layer    Maximum-Flux-Residual          L2-NORM 
          0                 1           2             5    8     1       0.9377472793E-01       5    8    1         0.5075732312E+01      0.1278186787E+02
          0                 2           2             4    7     1      -0.2117755981E+00       5    8    1        -0.1144090817E+02      0.2795901750E+02
          0                 3           2             4    7     1       0.1442090241E-01       5    8    1         0.8008267824E+00      0.1957056466E+01
          0                 4           2             4    7     1      -0.5738222974E-03       5    8    1        -0.3275134029E-01      0.8004035001E-01
          0                 5           1             4    7     1       0.7075476138E-05       5    6    1         0.4149477286E-03      0.1014230235E-02

    ------------------------------------------------
       NWT REQUIRED            5 OUTER ITERATIONS 
       AND A TOTAL OF          9 INNER ITERATIONS.
    ------------------------------------------------

 NO OUTPUT CONTROL FOR STRESS PERIOD   45   TIME STEP   29
 
 SOLVING FOR HEAD 
                                                   Max.-Head-Change                         Max.-Flux-Residual
  Residual-Control   Outer-Iter.   Inner-Iter.     Column Row Layer    Maximum-Head-Change  Column Row Layer    Maximum-Flux-Residual          L2-NORM 
          0                 1           2             5    8     1       0.9598521522E-01       5    8    1         0.5197133298E+01      0.1301570787E+02
          0                 2           2             5    7     1      -0.5840705398E-01       5    8    1        -0.3206264035E+01      0.7800503759E+01
          0                 3           2             5    7     1       0.3977292133E-02       5    8    1         0.2244381023E+00      0.5459749134E+00
          0                 4           2             5    7     1      -0.1582602300E-03       5    8    1        -0.9179533380E-02      0.2232697545E-01
          0                 5           1             5    7     1       0.1951419304E-05       5    8    1         0.1163329875E-03      0.2829010854E-03

    ------------------------------------------------
       NWT REQUIRED            5 OUTER ITERATIONS 
       AND A TOTAL OF          9 INNER ITERATIONS.
    ------------------------------------------------

 NO OUTPUT CONTROL FOR STRESS PERIOD   45   TIME STEP   30



 STREAM LISTING     PERIOD     45   STEP       30

 LAYER ROW COL. STREAM  RCH.  FLOW INTO     FLOW TO   FLOW OUT OF   OVRLND.     DIRECT     STREAM       STREAM     STREAM     STREAM   STREAMBED  STREAMBED
                SEG.NO.  NO.  STRM. RCH.    AQUIFER    STRM. RCH.    RUNOFF     PRECIP       ET          HEAD       DEPTH      WIDTH   CONDCTNC.   GRADIENT

   1    1    1     1     1    1.3875E+01  1.7894E-01   1.3696E+01  0.000E+00  0.000E+00  0.000E+00  1.09404E+03  9.876E-01  9.972E+00  4.487E-02  1.329E+00
   1    2    2     1     2    1.3696E+01  2.7573E-01   1.3420E+01  0.000E+00  0.000E+00  0.000E+00  1.08904E+03  9.829E-01  9.890E+00  6.923E-02  1.328E+00
   1    3    3     1     3    1.3420E+01  2.3380E-01   1.3186E+01  0.000E+00  0.000E+00  0.000E+00  1.08340E+03  9.775E-01  9.797E+00  5.878E-02  1.326E+00
   1    3    4     1     4    1.3186E+01  2.1419E-01   1.2972E+01  0.000E+00  0.000E+00  0.000E+00  1.07838E+03  9.727E-01  9.714E+00  5.391E-02  1.324E+00
   1    4    5     2     1    1.0972E+01  2.9101E-01   1.0681E+01  0.000E+00  0.000E+00  0.000E+00  1.07266E+03  7.309E-01  1.200E+01  7.800E-02  1.244E+00
   1    5    6     2     2    1.0681E+01  2.2322E-01   1.0458E+01  0.000E+00  0.000E+00  0.000E+00  1.06723E+03  7.204E-01  1.200E+01  6.000E-02  1.240E+00
   1    6    6     2     3    1.0458E+01  2.2267E-01   1.0235E+01  0.000E+00  0.000E+00  0.000E+00  1.06250E+03  7.112E-01  1.200E+01  6.000E-02  1.237E+00
   1    7    6     2     4    1.0235E+01  2.2212E-01   1.0013E+01  0.000E+00  0.000E+00  0.000E+00  1.05778E+03  7.020E-01  1.200E+01  6.000E-02  1.234E+00
   1    8    6     2     5    1.0013E+01  2.2157E-01   9.7913E+00  0.000E+00  0.000E+00  0.000E+00  1.05305E+03  6.928E-01  1.200E+01  6.000E-02  1.231E+00
   1    3    5     3     1    2.0000E+00  2.8252E-01   1.7175E+00  0.000E+00  0.000E+00  0.000E+00  1.07555E+03  1.909E+00  9.636E+00  7.227E-02  1.955E+00
   1    3    6     3     2    1.7175E+00  2.4905E-01   1.4684E+00  0.000E+00  0.000E+00  0.000E+00  1.07264E+03  1.727E+00  8.909E+00  6.682E-02  1.864E+00
   1    3    7     3     3    1.4684E+00  1.9718E-01   1.2712E+00  0.000E+00  0.000E+00  0.000E+00  1.06987E+03  1.555E+00  8.218E+00  5.547E-02  1.777E+00
   1    4    8     3     4    1.2712E+00  2.2567E-01   1.0456E+00  0.000E+00  0.000E+00  0.000E+00  1.06682E+03  1.364E+00  7.455E+00  6.709E-02  1.682E+00
   1    5    8     3     5    1.0456E+00  1.5790E-01   8.8768E-01  0.000E+00  0.000E+00  0.000E+00  1.06362E+03  1.164E+00  6.655E+00  4.991E-02  1.582E+00
   1    6    8     3     6    8.8768E-01  5.5980E-02   8.3170E-01  0.000E+00  0.000E+00  0.000E+00  1.06158E+03  1.036E+00  6.145E+00  1.844E-02  1.518E+00
   1    5   10     4     1    1.0000E+01  9.0919E-02   9.9091E+00  0.000E+00  0.000E+00  0.000E+00  1.07836E+03  6.368E-01  1.000E+01  2.500E-02  1.212E+00
   1    5    9     4     2    9.9091E+00  1.8158E-01   9.7275E+00  0.000E+00  0.000E+00  0.000E+00  1.07154E+03  6.315E-01  1.000E+01  5.000E-02  1.211E+00
   1    6    8     4     3    9.7275E+00  1.2689E-01   9.6006E+00  0.000E+00  0.000E+00  0.000E+00  1.06381E+03  6.256E-01  1.000E+01  3.500E-02  1.209E+00
   1    6    8     5     1    1.0432E+01  2.2686E-01   1.0205E+01  0.000E+00  0.000E+00  0.000E+00  1.05868E+03  6.790E-01  1.542E+01  6.166E-02  1.226E+00
   1    7    7     5     2    1.0205E+01  2.7894E-01   9.9265E+00  0.000E+00  0.000E+00  0.000E+00  1.05417E+03  6.732E-01  1.519E+01  7.594E-02  1.224E+00
   1    8    7     5     3    9.9265E+00  1.9221E-01   9.7343E+00  0.000E+00  0.000E+00  0.000E+00  1.04992E+03  6.676E-01  1.497E+01  5.241E-02  1.223E+00
   1    8    6     5     4    9.7343E+00  1.3577E-01   9.5985E+00  0.000E+00  0.000E+00  0.000E+00  1.04691E+03  6.637E-01  1.482E+01  3.706E-02  1.221E+00
   1    9    6     6     1    9.5985E+00  2.2097E-01   9.3776E+00  0.000E+00  0.000E+00  0.000E+00  1.04341E+03  6.828E-01  1.200E+01  6.000E-02  1.228E+00
   1   10    7     6     2    9.3776E+00  2.2039E-01   9.1572E+00  0.000E+00  0.000E+00  0.000E+00  1.03885E+03  6.732E-01  1.200E+01  6.000E-02  1.224E+00
   1   11    7     6     3    9.1572E+00  2.1981E-01   8.9374E+00  0.000E+00  0.000E+00  0.000E+00  1.03430E+03  6.636E-01  1.200E+01  6.000E-02  1.221E+00
   1   12    7     6     4    8.9374E+00  2.1923E-01   8.7181E+00  0.000E+00  0.000E+00  0.000E+00  1.02974E+03  6.539E-01  1.200E+01  6.000E-02  1.218E+00
   1   13    7     6     5    8.7181E+00  1.6327E-03   8.7165E+00  0.000E+00  0.000E+00  0.000E+00  1.02656E+03  6.489E-01  1.200E+01  2.400E-02  2.268E-02
   1   14    9     7     1    1.5000E+02  1.4011E+00   1.4860E+02  0.000E+00  0.000E+00  0.000E+00  1.03987E+03  2.288E+00  5.529E+01  5.593E-01  8.351E-01
   1   13    8     7     2    1.4860E+02  2.0297E+00   1.4657E+02  0.000E+00  0.000E+00  0.000E+00  1.03478E+03  2.278E+00  5.525E+01  6.147E-01  1.101E+00
   1   13    7     7     3    1.4657E+02  1.7853E+00   1.4478E+02  0.000E+00  0.000E+00  0.000E+00  1.02969E+03  2.268E+00  5.521E+01  5.583E-01  1.066E+00
   1   13    6     8     1    1.5350E+02  1.1318E+00   1.5237E+02  0.000E+00  0.000E+00  0.000E+00  1.02471E+03  2.837E+00  4.114E+01  4.193E-01  8.999E-01
   1   13    5     8     2    1.5237E+02  3.8014E-01   1.5199E+02  0.000E+00  0.000E+00  0.000E+00  1.01846E+03  2.832E+00  4.107E+01  4.185E-01  3.028E-01
   1   13    4     8     3    1.5199E+02 -1.7211E+00   1.5371E+02  0.000E+00  0.000E+00  0.000E+00  1.01221E+03  2.837E+00  4.113E+01  4.192E+00 -1.369E-01
   1   13    3     8     4    1.5371E+02 -3.2816E+00   1.5699E+02  0.000E+00  0.000E+00  0.000E+00  1.00598E+03  2.854E+00  4.138E+01  4.217E+00 -2.594E-01
   1   13    2     8     5    1.5699E+02 -2.4861E+00   1.5948E+02  0.000E+00  0.000E+00  0.000E+00  9.99749E+02  2.874E+00  4.167E+01  4.246E+00 -1.952E-01
   1   13    1     8     6    1.5948E+02 -1.9587E+00   1.6144E+02  0.000E+00  0.000E+00  0.000E+00  9.94764E+02  2.889E+00  4.189E+01  2.561E+00 -2.549E-01
   1    8    6     9     1    9.7913E+00  0.0000E+00   9.7913E+00  0.000E+00  0.000E+00  0.000E+00  1.08099E+03  2.238E+00  4.000E+00  0.000E+00  1.746E+00
   1    8    5     9     2    9.7913E+00  0.0000E+00   9.7913E+00  0.000E+00  0.000E+00  0.000E+00  1.08049E+03  2.238E+00  4.000E+00  0.000E+00  1.746E+00





UNSATURATED ZONE PACKAGE VOLUMETRIC BUDGET FOR  TIME STEP    30 STRESS PERIOD   45
  ------------------------------------------------------------------------------



     CUMULATIVE VOLUMES      L**3       RATES FOR THIS TIME STEP      L**3/T
     ------------------                 ------------------------

           IN:                                      IN:
           ---                                      ---
        INFILTRATION =  2398349950.9065          INFILTRATION =          30.3184

          OUT:                                     OUT:
          ----                                     ----
              UZF ET =  1932827059.8365                UZF ET =          52.9209
        UZF RECHARGE =    65291465.0745          UZF RECHARGE =       0.0000E+00

            IN - OUT =   400231425.9954              IN - OUT =         -22.6025

          STORAGE:                                 STORAGE:
          --------                                 --------
      STORAGE CHANGE =   400231384.3007        STORAGE CHANGE =         -22.6025

 PERCENT DISCREPANCY IS DIFFERENCE BETWEEN IN-OUT MINUS CHANGE IN STORAGE
 DIVIDED BY THE AVERAGE OF IN AND OUT TIMES 100

 PERCENT DISCREPANCY =           0.00     PERCENT DISCREPANCY =           0.00






1
  VOLUMETRIC BUDGET FOR AGRICULTURAL FIELDS AT  END OF TIME STEP   30, STRESS PERIOD  45
  ------------------------------------------------------------------------------

     CUMULATIVE VOLUMES      L**3       RATES FOR THIS TIME STEP      L**3/T
     ------------------                 ------------------------

           IN:                                      IN:
           ---                                      ---
               AG WELLS  =  1192536960.0000                 AG WELLS  =          16.1194
      DIVERSION SEGMENTS =   696184448.0000        DIVERSION SEGMENTS =           9.7913
           GW IRRIGATION =           0.0000             GW IRRIGATION =           0.0000
           SW IRRIGATION =           0.0000             SW IRRIGATION =           0.0000
        SYSTEM LOSSES GW =           0.0000          SYSTEM LOSSES GW =           0.0000
        SYSTEM LOSSES SW =           0.0000          SYSTEM LOSSES SW =           0.0000

                TOTAL IN =  1888721408.0000                  TOTAL IN =          25.9107

          OUT:                                     OUT:
          ----                                     ----
               AG WELLS  =           0.0000                 AG WELLS  =           0.0000
      DIVERSION SEGMENTS =           0.0000        DIVERSION SEGMENTS =           0.0000
           GW IRRIGATION =  1192536960.0000             GW IRRIGATION =          16.1194
           SW IRRIGATION =   696197824.0000             SW IRRIGATION =           9.7915
        SYSTEM LOSSES GW =           0.0000          SYSTEM LOSSES GW =           0.0000
        SYSTEM LOSSES SW =           0.0000          SYSTEM LOSSES SW =           0.0000

               TOTAL OUT =  1888734720.0000                 TOTAL OUT =          25.9109

                IN - OUT =      -13312.0000                  IN - OUT =      -1.9646E-04

     PERCENT DISCREPANCY =          -0.00         PERCENT DISCREPANCY =          -0.00



1
  VOLUMETRIC BUDGET FOR ENTIRE MODEL AT END OF TIME STEP   30, STRESS PERIOD  45
  ------------------------------------------------------------------------------

     CUMULATIVE VOLUMES      L**3       RATES FOR THIS TIME STEP      L**3/T
     ------------------                 ------------------------

           IN:                                      IN:
           ---                                      ---
             STORAGE     =  1656878592.0000               STORAGE     =          26.1315
       CONSTANT HEAD     =           0.0000         CONSTANT HEAD     =           0.0000
     HEAD DEP BOUNDS     =    33431164.0000       HEAD DEP BOUNDS     =           0.2902
      STREAM LEAKAGE     =  1387285248.0000        STREAM LEAKAGE     =          12.0948
        UZF RECHARGE     =    65291468.0000          UZF RECHARGE     =           0.0000
               GW ET     =           0.0000                 GW ET     =           0.0000
     SURFACE LEAKAGE     =           0.0000       SURFACE LEAKAGE     =           0.0000
           AG WELLS      =           0.0000             AG WELLS      =           0.0000

                TOTAL IN =  3142886656.0000                  TOTAL IN =          38.5165

          OUT:                                     OUT:
          ----                                     ----
             STORAGE     =   772129856.0000               STORAGE     =          12.6635
       CONSTANT HEAD     =           0.0000         CONSTANT HEAD     =           0.0000
     HEAD DEP BOUNDS     =    33333086.0000       HEAD DEP BOUNDS     =           0.2861
      STREAM LEAKAGE     =  1144893824.0000        STREAM LEAKAGE     =           9.4475
        UZF RECHARGE     =           0.0000          UZF RECHARGE     =           0.0000
               GW ET     =           0.0000                 GW ET     =           0.0000
     SURFACE LEAKAGE     =           0.0000       SURFACE LEAKAGE     =           0.0000
           AG WELLS      =  1192536960.0000             AG WELLS      =          16.1194

               TOTAL OUT =  3142893568.0000                 TOTAL OUT =          38.5165

                IN - OUT =       -6912.0000                  IN - OUT =       1.5259E-05

     PERCENT DISCREPANCY =          -0.00         PERCENT DISCREPANCY =           0.00






         TIME SUMMARY AT END OF TIME STEP   30 IN STRESS PERIOD   45
                    SECONDS     MINUTES      HOURS       DAYS        YEARS
                    -----------------------------------------------------------
   TIME STEP LENGTH  87667.      1461.1      24.352      1.0147     2.77799E-03
 STRESS PERIOD TIME 2.63000E+06  43833.      730.56      30.440     8.33397E-02
         TOTAL TIME 1.15805E+08 1.93009E+06  32168.      1340.3      3.6696    
1
1
                            STRESS PERIOD NO.   46, LENGTH =   2630000.    
                            -----------------------------------------------

                              NUMBER OF TIME STEPS =    30

                               MULTIPLIER FOR DELT =     1.000

                            INITIAL TIME STEP SIZE =   87666.66    

 REUSING NON-PARAMETER GHB CELLS FROM LAST STRESS PERIOD

      2 GHB CELLS

 REUSING STREAM SEGMENT DATA FROM LAST STRESS PERIOD



            AREAL INFILTRATION RATE
 READING ON UNIT   19 WITH FORMAT: (10F4.0)            

            1           2           3           4           5           6           7           8           9          10
 ........................................................................................................................
   1   1.2000E-09   0.000       0.000       0.000       0.000       0.000       0.000       0.000       0.000       0.000    
   2   2.1000E-09  2.0000E-09  8.0000E-10  8.5000E-09   0.000       0.000       0.000       0.000       0.000       0.000    
   3   5.0000E-10  1.1000E-09  8.8000E-09  5.5000E-09   0.000       0.000       0.000       0.000       0.000       0.000    
   4   8.5000E-09  1.1000E-09  1.1000E-09  1.1000E-09  2.0000E-09   0.000       0.000       0.000       0.000       0.000    
   5   8.5000E-09  1.1000E-09  1.1000E-09  1.1000E-09  1.1000E-09   0.000       0.000       0.000       0.000       0.000    
   6   8.5000E-09  5.2000E-09  2.1000E-09  1.1000E-09  1.5000E-09   0.000       0.000       0.000       0.000       0.000    
   7   8.5000E-09  5.2000E-09  2.1000E-09  1.2000E-09  2.0000E-09   0.000       0.000       0.000       0.000       0.000    
   8   5.0000E-10  5.2000E-09  2.1000E-09  1.2000E-09  5.0000E-09   0.000       0.000       0.000       0.000       0.000    
   9   5.0000E-10  5.2000E-09  2.1000E-09  1.2000E-09  5.0000E-09   0.000       0.000       0.000       0.000       0.000    
  10   5.0000E-10  5.2000E-09  2.1000E-09  1.2000E-09  5.8000E-09   0.000       0.000       0.000       0.000       0.000    
  11   1.0000E-10  1.1000E-09  1.1000E-09  1.2000E-09  5.0000E-09   0.000       0.000       0.000       0.000       0.000    
  12   1.1000E-09  1.1000E-09  1.1000E-09  1.1000E-09  2.0000E-09   0.000       0.000       0.000       0.000       0.000    
  13   1.1000E-09  2.2000E-09  2.2000E-09  2.1000E-09  1.0000E-09   0.000       0.000       0.000       0.000       0.000    
  14   2.0000E-10  5.5000E-09  5.5000E-09  5.2000E-09  1.0000E-09   0.000       0.000       0.000       0.000       0.000    
  15    0.000      8.8000E-09  8.8000E-09   0.000       0.000       0.000       0.000       0.000       0.000       0.000    

                  ET RATE =  7.500000E-08

 USING ET EXTINCTION DEPTH FROM PREVIOUS STRESS PERIOD. CURRENT PERIOD IS:      46

 USING EXTINCTION WATER CONTENT FROM PREVIOUS STRESS PERIOD. CURRENT PERIOD IS:      46

 USING AIR ENTRY PRESSURE FROM PREVIOUS STRESS PERIOD. CURRENT PERIOD IS:      46

 USING ROOT PRESSURE HEAD FROM PREVIOUS STRESS PERIOD. CURRENT PERIOD IS:      46

 USING ROOT ACTIVITY FROM PREVIOUS STRESS PERIOD. CURRENT PERIOD IS:      46

 PROCESSING AG STRESS PERIOD DATA

 READING AG STRESS PERIOD DATA

 READING IRRIGATION SEGMENT

 READING IRRIGATION WELL

 READING SUPPLEMENTAL WELL

 END PROCESSING AG STRESS PERIOD DATA OPTIONS
 
 SOLVING FOR HEAD 
                                                   Max.-Head-Change                         Max.-Flux-Residual
  Residual-Control   Outer-Iter.   Inner-Iter.     Column Row Layer    Maximum-Head-Change  Column Row Layer    Maximum-Flux-Residual          L2-NORM 
          0                 1           2             5    8     1       0.9364525897E-01       5    8    1         0.5067493357E+01      0.1278398693E+02
          0                 2           2             5    8     1      -0.9701448131E-02       5    8    1        -0.5393569428E+00      0.1352198201E+01
          0                 3           2             5    6     1       0.1237538248E-02       5    8    1         0.7037058368E-01      0.1713702791E+00
          0                 4           1             5    6     1      -0.4924271329E-04       5    8    1        -0.2878160544E-02      0.7014046031E-02

    ------------------------------------------------
       NWT REQUIRED            4 OUTER ITERATIONS 
       AND A TOTAL OF          7 INNER ITERATIONS.
    ------------------------------------------------

 NO OUTPUT CONTROL FOR STRESS PERIOD   46   TIME STEP    1
 
 SOLVING FOR HEAD 
                                                   Max.-Head-Change                         Max.-Flux-Residual
  Residual-Control   Outer-Iter.   Inner-Iter.     Column Row Layer    Maximum-Head-Change  Column Row Layer    Maximum-Flux-Residual          L2-NORM 
          0                 1           2             5    6     1       0.9012432205E-01       5    8    1         0.4866266734E+01      0.1241614765E+02
          0                 2           2             5    7     1      -0.4580687773E-01       5    8    1        -0.2504731250E+01      0.6120441038E+01
          0                 3           2             5    7     1       0.3119271559E-02       5    8    1         0.1753310537E+00      0.4283558652E+00
          0                 4           2             5    7     1      -0.1241187664E-03       5    8    1        -0.7171051062E-02      0.1751549514E-01
          0                 5           1             5    7     1       0.1530439548E-05       5    8    1         0.9087930357E-04      0.2219250857E-03

    ------------------------------------------------
       NWT REQUIRED            5 OUTER ITERATIONS 
       AND A TOTAL OF          9 INNER ITERATIONS.
    ------------------------------------------------

 NO OUTPUT CONTROL FOR STRESS PERIOD   46   TIME STEP    2
 
 SOLVING FOR HEAD 
                                                   Max.-Head-Change                         Max.-Flux-Residual
  Residual-Control   Outer-Iter.   Inner-Iter.     Column Row Layer    Maximum-Head-Change  Column Row Layer    Maximum-Flux-Residual          L2-NORM 
          0                 1           2             5    6     1       0.8788428213E-01       5    6    1         0.4740181261E+01      0.1218076770E+02
          0                 2           2             5    6     1      -0.8655700174E-02       5    6    1        -0.4798952265E+00      0.1231379554E+01
          0                 3           2             5    6     1       0.5588043011E-03       5    6    1         0.3186286042E-01      0.8228670373E-01
          0                 4           1             5    6     1      -0.3031502234E-04       5    6    1        -0.1772417497E-02      0.4814280492E-02

    ------------------------------------------------
       NWT REQUIRED            4 OUTER ITERATIONS 
       AND A TOTAL OF          7 INNER ITERATIONS.
    ------------------------------------------------

 NO OUTPUT CONTROL FOR STRESS PERIOD   46   TIME STEP    3
 
 SOLVING FOR HEAD 
                                                   Max.-Head-Change                         Max.-Flux-Residual
  Residual-Control   Outer-Iter.   Inner-Iter.     Column Row Layer    Maximum-Head-Change  Column Row Layer    Maximum-Flux-Residual          L2-NORM 
          0                 1           2             5    7     1       0.8534945426E-01       5    6    1         0.4567601978E+01      0.1184666344E+02
          0                 2           2             4    7     1      -0.5883093991E-01       5    6    1        -0.3183483765E+01      0.7792000198E+01
          0                 3           2             4    7     1       0.4006153149E-02       5    6    1         0.2228434547E+00      0.5454210791E+00
          0                 4           2             4    7     1      -0.1594086561E-03       5    6    1        -0.9114312333E-02      0.2230683237E-01
          0                 5           1             4    7     1       0.1965577644E-05       5    6    1         0.1155064324E-03      0.2827121282E-03

    ------------------------------------------------
       NWT REQUIRED            5 OUTER ITERATIONS 
       AND A TOTAL OF          9 INNER ITERATIONS.
    ------------------------------------------------

 NO OUTPUT CONTROL FOR STRESS PERIOD   46   TIME STEP    4
 
 SOLVING FOR HEAD 
                                                   Max.-Head-Change                         Max.-Flux-Residual
  Residual-Control   Outer-Iter.   Inner-Iter.     Column Row Layer    Maximum-Head-Change  Column Row Layer    Maximum-Flux-Residual          L2-NORM 
          0                 1           2             5    7     1       0.8441980696E-01       5    6    1         0.4480415289E+01      0.1167306356E+02
          0                 2           2             5    7     1      -0.8340801426E-02       5    6    1        -0.4550339530E+00      0.1183216248E+01
          0                 3           2             5    7     1       0.5966131924E-03       5    6    1         0.3344831214E-01      0.8646972547E-01
          0                 4           1             5    7     1      -0.5922239079E-04       5    6    1        -0.3400625816E-02      0.8476763119E-02

    ------------------------------------------------
       NWT REQUIRED            4 OUTER ITERATIONS 
       AND A TOTAL OF          7 INNER ITERATIONS.
    ------------------------------------------------

 NO OUTPUT CONTROL FOR STRESS PERIOD   46   TIME STEP    5
 
 SOLVING FOR HEAD 
                                                   Max.-Head-Change                         Max.-Flux-Residual
  Residual-Control   Outer-Iter.   Inner-Iter.     Column Row Layer    Maximum-Head-Change  Column Row Layer    Maximum-Flux-Residual          L2-NORM 
          0                 1           2             5    7     1       0.8275863039E-01       5    7    1         0.4387402214E+01      0.1136312277E+02
          0                 2           2             4    7     1      -0.5876314644E-01       5    7    1        -0.3165468653E+01      0.7750428314E+01
          0                 3           2             4    7     1       0.4001535504E-02       5    7    1         0.2215819360E+00      0.5425109591E+00
          0                 4           2             4    7     1      -0.1592249210E-03       5    7    1        -0.9062718286E-02      0.2218783008E-01
          0                 5           1             4    7     1       0.1963312144E-05       5    7    1         0.1148525580E-03      0.2812184106E-03

    ------------------------------------------------
       NWT REQUIRED            5 OUTER ITERATIONS 
       AND A TOTAL OF          9 INNER ITERATIONS.
    ------------------------------------------------

 NO OUTPUT CONTROL FOR STRESS PERIOD   46   TIME STEP    6
 
 SOLVING FOR HEAD 
                                                   Max.-Head-Change                         Max.-Flux-Residual
  Residual-Control   Outer-Iter.   Inner-Iter.     Column Row Layer    Maximum-Head-Change  Column Row Layer    Maximum-Flux-Residual          L2-NORM 
          0                 1           2             5    7     1       0.8188040419E-01       5    7    1         0.4340600982E+01      0.1121102887E+02
          0                 2           2             5    7     1      -0.8100418623E-02       5    7    1        -0.4414161647E+00      0.1137903582E+01
          0                 3           2             5    7     1       0.5759371079E-03       5    7    1         0.3225499985E-01      0.8276341037E-01
          0                 4           1             4    7     1      -0.6566401443E-04       5    7    1        -0.3748531264E-02      0.9308728647E-02

    ------------------------------------------------
       NWT REQUIRED            4 OUTER ITERATIONS 
       AND A TOTAL OF          7 INNER ITERATIONS.
    ------------------------------------------------

 NO OUTPUT CONTROL FOR STRESS PERIOD   46   TIME STEP    7
 
 SOLVING FOR HEAD 
                                                   Max.-Head-Change                         Max.-Flux-Residual
  Residual-Control   Outer-Iter.   Inner-Iter.     Column Row Layer    Maximum-Head-Change  Column Row Layer    Maximum-Flux-Residual          L2-NORM 
          0                 1           2             4    7     1       0.8089598346E-01       5    7    1         0.4255446364E+01      0.1092357871E+02
          0                 2           2             4    7     1      -0.5868184359E-01       5    7    1        -0.3152273891E+01      0.7712102450E+01
          0                 3           2             4    7     1       0.3995998097E-02       5    7    1         0.2206582632E+00      0.5398280990E+00
          0                 4           2             4    7     1      -0.1590045873E-03       5    7    1        -0.9024940190E-02      0.2207804775E-01
          0                 5           1             4    7     1       0.1960595112E-05       5    7    1         0.1143738059E-03      0.2797995113E-03

    ------------------------------------------------
       NWT REQUIRED            5 OUTER ITERATIONS 
       AND A TOTAL OF          9 INNER ITERATIONS.
    ------------------------------------------------

 NO OUTPUT CONTROL FOR STRESS PERIOD   46   TIME STEP    8
 
 SOLVING FOR HEAD 
                                                   Max.-Head-Change                         Max.-Flux-Residual
  Residual-Control   Outer-Iter.   Inner-Iter.     Column Row Layer    Maximum-Head-Change  Column Row Layer    Maximum-Flux-Residual          L2-NORM 
          0                 1           2             4    7     1       0.8056061553E-01       4    7    1         0.4215728779E+01      0.1079010160E+02
          0                 2           2             4    7     1      -0.7967004557E-02       4    7    1        -0.4285842552E+00      0.1095075194E+01
          0                 3           2             4    7     1       0.6000353500E-03       4    7    1         0.3317340248E-01      0.8397876328E-01
          0                 4           1             4    7     1      -0.4501339301E-04       4    7    1        -0.2555285881E-02      0.6348149022E-02

    ------------------------------------------------
       NWT REQUIRED            4 OUTER ITERATIONS 
       AND A TOTAL OF          7 INNER ITERATIONS.
    ------------------------------------------------

 NO OUTPUT CONTROL FOR STRESS PERIOD   46   TIME STEP    9
 
 SOLVING FOR HEAD 
                                                   Max.-Head-Change                         Max.-Flux-Residual
  Residual-Control   Outer-Iter.   Inner-Iter.     Column Row Layer    Maximum-Head-Change  Column Row Layer    Maximum-Flux-Residual          L2-NORM 
          0                 1           2             4    7     1       0.7994625972E-01       4    7    1         0.4185691120E+01      0.1057870692E+02
          0                 2           2             4    7     1      -0.5857959446E-01       4    7    1        -0.3145059876E+01      0.7412175522E+01
          0                 3           2             5    8     1      -0.4566468564E-02       5    8    1        -0.2654867092E+00      0.5582803338E+00
          0                 4           2             5    8     1      -0.4763932260E-03       5    8    1        -0.2674965257E-01      0.3350981491E-01
          0                 5           1             5    8     1      -0.4969511514E-04       5    8    1        -0.2820995716E-02      0.2830992967E-02

    ------------------------------------------------
       NWT REQUIRED            5 OUTER ITERATIONS 
       AND A TOTAL OF          9 INNER ITERATIONS.
    ------------------------------------------------

 NO OUTPUT CONTROL FOR STRESS PERIOD   46   TIME STEP   10
 
 SOLVING FOR HEAD 
                                                   Max.-Head-Change                         Max.-Flux-Residual
  Residual-Control   Outer-Iter.   Inner-Iter.     Column Row Layer    Maximum-Head-Change  Column Row Layer    Maximum-Flux-Residual          L2-NORM 
          0                 1           2             5    8     1       0.1801645238E+00       5    8    1         0.9841655274E+01      0.1380596741E+02
          0                 2           2             5    8     1       0.7945445473E-01       5    8    1         0.4393999717E+01      0.4502357035E+01
          0                 3           2             5    8     1       0.1401360954E-01       5    8    1         0.7722973740E+00      0.7760950559E+00
          0                 4           1             5    8     1       0.1090948049E-02       5    8    1         0.6022925302E-01      0.6043101226E-01
          0                 5           1             5    8     1       0.5724101089E-04       5    8    1         0.3203186773E-02      0.4762634769E-02

    ------------------------------------------------
       NWT REQUIRED            5 OUTER ITERATIONS 
       AND A TOTAL OF          8 INNER ITERATIONS.
    ------------------------------------------------

 NO OUTPUT CONTROL FOR STRESS PERIOD   46   TIME STEP   11
 
 SOLVING FOR HEAD 
                                                   Max.-Head-Change                         Max.-Flux-Residual
  Residual-Control   Outer-Iter.   Inner-Iter.     Column Row Layer    Maximum-Head-Change  Column Row Layer    Maximum-Flux-Residual          L2-NORM 
          0                 1           2             4    7     1       0.7908520217E-01       5    7    1         0.4190354225E+01      0.1003236806E+02
          0                 2           2             4    7     1      -0.5835546771E-01       5    7    1        -0.3137920127E+01      0.7410628347E+01
          0                 3           2             5    8     1      -0.4709540152E-02       5    8    1        -0.2736688206E+00      0.5604818835E+00
          0                 4           2             5    8     1      -0.4912943865E-03       5    8    1        -0.2759306373E-01      0.3414154850E-01
          0                 5           1             5    8     1      -0.5124695819E-04       5    8    1        -0.2909173081E-02      0.2918704887E-02

    ------------------------------------------------
       NWT REQUIRED            5 OUTER ITERATIONS 
       AND A TOTAL OF          9 INNER ITERATIONS.
    ------------------------------------------------

 NO OUTPUT CONTROL FOR STRESS PERIOD   46   TIME STEP   12
 
 SOLVING FOR HEAD 
                                                   Max.-Head-Change                         Max.-Flux-Residual
  Residual-Control   Outer-Iter.   Inner-Iter.     Column Row Layer    Maximum-Head-Change  Column Row Layer    Maximum-Flux-Residual          L2-NORM 
          0                 1           2             5    8     1       0.2376695064E+00       5    8    1         0.1300619397E+02      0.1609922646E+02
          0                 2           2             5    8     1       0.1870596173E-01       5    8    1         0.1043083162E+01      0.1418880132E+01
          0                 3           2             5    8     1       0.1538672129E-02       5    8    1         0.8401455458E-01      0.1120417209E+00
          0                 4           1             5    8     1       0.1047786942E-03       5    8    1         0.5841018633E-02      0.7694703860E-02
          0                 5           1             4    7     1      -0.2376123656E-04       5    6    1        -0.1349124122E-02      0.3289363641E-02

    ------------------------------------------------
       NWT REQUIRED            5 OUTER ITERATIONS 
       AND A TOTAL OF          8 INNER ITERATIONS.
    ------------------------------------------------

 NO OUTPUT CONTROL FOR STRESS PERIOD   46   TIME STEP   13
 
 SOLVING FOR HEAD 
                                                   Max.-Head-Change                         Max.-Flux-Residual
  Residual-Control   Outer-Iter.   Inner-Iter.     Column Row Layer    Maximum-Head-Change  Column Row Layer    Maximum-Flux-Residual          L2-NORM 
          0                 1           2             5    7     1       0.7886997943E-01       5    7    1         0.4211101951E+01      0.9653273472E+01
          0                 2           2             4    7     1      -0.5810715271E-01       5    7    1        -0.3130876636E+01      0.7396983096E+01
          0                 3           2             5    8     1      -0.3976345865E-02       5    8    1        -0.2321302151E+00      0.5393112162E+00
          0                 4           2             5    8     1       0.2708111520E-03       5    8    1         0.1606132220E-01      0.2564851700E-01
          0                 5           1             5    8     1      -0.1077839180E-04       5    8    1        -0.6494019758E-03      0.6996944950E-03

    ------------------------------------------------
       NWT REQUIRED            5 OUTER ITERATIONS 
       AND A TOTAL OF          9 INNER ITERATIONS.
    ------------------------------------------------

 NO OUTPUT CONTROL FOR STRESS PERIOD   46   TIME STEP   14
 
 SOLVING FOR HEAD 
                                                   Max.-Head-Change                         Max.-Flux-Residual
  Residual-Control   Outer-Iter.   Inner-Iter.     Column Row Layer    Maximum-Head-Change  Column Row Layer    Maximum-Flux-Residual          L2-NORM 
          0                 1           2             5    8     1       0.2228831663E+00       5    8    1         0.1218431819E+02      0.1533026357E+02
          0                 2           2             5    8     1       0.1752541774E-01       5    8    1         0.9786166686E+00      0.1360057132E+01
          0                 3           2             5    8     1       0.1447646679E-02       5    8    1         0.7894603634E-01      0.1076854993E+00
          0                 4           1             5    8     1       0.9448838258E-04       5    8    1         0.5280582939E-02      0.7515965087E-02

    ------------------------------------------------
       NWT REQUIRED            4 OUTER ITERATIONS 
       AND A TOTAL OF          7 INNER ITERATIONS.
    ------------------------------------------------

 NO OUTPUT CONTROL FOR STRESS PERIOD   46   TIME STEP   15
 
 SOLVING FOR HEAD 
                                                   Max.-Head-Change                         Max.-Flux-Residual
  Residual-Control   Outer-Iter.   Inner-Iter.     Column Row Layer    Maximum-Head-Change  Column Row Layer    Maximum-Flux-Residual          L2-NORM 
          0                 1           2             5    7     1       0.7852015636E-01       5    7    1         0.4202763729E+01      0.9352791470E+01
          0                 2           2             4    7     1      -0.5784865648E-01       5    7    1        -0.3120287916E+01      0.7378262718E+01
          0                 3           2             4    7     1       0.3937214514E-02       5    7    1         0.2184182034E+00      0.4964299041E+00
          0                 4           2             4    7     1      -0.1566655437E-03       5    7    1        -0.8977274481E-02      0.2119664250E-01
          0                 5           1             5    8     1      -0.4894374083E-05       5    8    1        -0.2966498155E-03      0.3910199286E-03

    ------------------------------------------------
       NWT REQUIRED            5 OUTER ITERATIONS 
       AND A TOTAL OF          9 INNER ITERATIONS.
    ------------------------------------------------

 NO OUTPUT CONTROL FOR STRESS PERIOD   46   TIME STEP   16
 
 SOLVING FOR HEAD 
                                                   Max.-Head-Change                         Max.-Flux-Residual
  Residual-Control   Outer-Iter.   Inner-Iter.     Column Row Layer    Maximum-Head-Change  Column Row Layer    Maximum-Flux-Residual          L2-NORM 
          0                 1           2             4    7     1       0.7713330680E-01       5    7    1         0.4119829853E+01      0.9258049252E+01
          0                 2           2             4    7     1      -0.7770876216E-02       5    7    1        -0.4264078051E+00      0.9446355415E+00
          0                 3           2             4    7     1       0.5820919216E-03       5    7    1         0.3277260160E-01      0.7245488743E-01
          0                 4           2             5    8     1       0.1227879680E-03       5    8    1         0.6975393276E-02      0.1556515605E-01
          0                 5           1             5    8     1       0.1615092594E-04       5    8    1         0.9486000426E-03      0.1362958247E-02

    ------------------------------------------------
       NWT REQUIRED            5 OUTER ITERATIONS 
       AND A TOTAL OF          9 INNER ITERATIONS.
    ------------------------------------------------

 NO OUTPUT CONTROL FOR STRESS PERIOD   46   TIME STEP   17
 
 SOLVING FOR HEAD 
                                                   Max.-Head-Change                         Max.-Flux-Residual
  Residual-Control   Outer-Iter.   Inner-Iter.     Column Row Layer    Maximum-Head-Change  Column Row Layer    Maximum-Flux-Residual          L2-NORM 
          0                 1           2             4    7     1       0.7650818793E-01       4    7    1         0.4007653469E+01      0.9052710406E+01
          0                 2           2             4    7     1      -0.4995750984E-01       4    7    1        -0.2682356399E+01      0.6326284501E+01
          0                 3           2             4    7     1       0.3399710650E-02       4    7    1         0.1877640892E+00      0.4464888212E+00
          0                 4           2             5    8     1       0.1853287974E-03       5    8    1         0.1103710916E-01      0.2035975495E-01
          0                 5           1             5    8     1      -0.7376158499E-05       5    8    1        -0.4447744432E-03      0.4971510353E-03

    ------------------------------------------------
       NWT REQUIRED            5 OUTER ITERATIONS 
       AND A TOTAL OF          9 INNER ITERATIONS.
    ------------------------------------------------

 NO OUTPUT CONTROL FOR STRESS PERIOD   46   TIME STEP   18
 
 SOLVING FOR HEAD 
                                                   Max.-Head-Change                         Max.-Flux-Residual
  Residual-Control   Outer-Iter.   Inner-Iter.     Column Row Layer    Maximum-Head-Change  Column Row Layer    Maximum-Flux-Residual          L2-NORM 
          0                 1           2             4    7     1       0.7606192042E-01       4    7    1         0.3985697230E+01      0.8953962439E+01
          0                 2           2             4    7     1      -0.1281873915E-01       4    7    1        -0.6895059124E+00      0.1529823084E+01
          0                 3           2             4    7     1       0.5892845404E-02       4    7    1         0.3251952904E+00      0.7676312375E+00
          0                 4           2             5    8     1       0.5748392715E-03       5    8    1         0.3391541039E-01      0.4467058014E-01
          0                 5           1             5    8     1       0.5953176014E-04       5    8    1         0.3491143380E-02      0.5073864917E-02

    ------------------------------------------------
       NWT REQUIRED            5 OUTER ITERATIONS 
       AND A TOTAL OF          9 INNER ITERATIONS.
    ------------------------------------------------

 NO OUTPUT CONTROL FOR STRESS PERIOD   46   TIME STEP   19
 
 SOLVING FOR HEAD 
                                                   Max.-Head-Change                         Max.-Flux-Residual
  Residual-Control   Outer-Iter.   Inner-Iter.     Column Row Layer    Maximum-Head-Change  Column Row Layer    Maximum-Flux-Residual          L2-NORM 
          0                 1           2             4    7     1       0.7537835085E-01       4    7    1         0.3952091874E+01      0.8763118835E+01
          0                 2           2             4    7     1      -0.4703710682E-01       4    7    1        -0.2525990237E+01      0.5929641156E+01
          0                 3           2             4    7     1       0.3200747612E-02       5    8    1        -0.1843616639E+00      0.4325065729E+00
          0                 4           2             5    8     1       0.2149806201E-03       5    8    1         0.1275099136E-01      0.2051590029E-01
          0                 5           1             5    8     1      -0.8556313252E-05       5    8    1        -0.5152663830E-03      0.5564537685E-03

    ------------------------------------------------
       NWT REQUIRED            5 OUTER ITERATIONS 
       AND A TOTAL OF          9 INNER ITERATIONS.
    ------------------------------------------------

 NO OUTPUT CONTROL FOR STRESS PERIOD   46   TIME STEP   20
 
 SOLVING FOR HEAD 
                                                   Max.-Head-Change                         Max.-Flux-Residual
  Residual-Control   Outer-Iter.   Inner-Iter.     Column Row Layer    Maximum-Head-Change  Column Row Layer    Maximum-Flux-Residual          L2-NORM 
          0                 1           2             4    7     1       0.7486513251E-01       4    7    1         0.3926289596E+01      0.8669963084E+01
          0                 2           2             4    7     1      -0.1243668408E-01       4    7    1        -0.6693297419E+00      0.1461712316E+01
          0                 3           2             4    7     1       0.5622106876E-02       4    7    1         0.3102799347E+00      0.7325469090E+00
          0                 4           2             5    8     1       0.5618309866E-03       5    8    1         0.3312939475E-01      0.4279363570E-01
          0                 5           1             5    8     1       0.5093860152E-04       5    8    1         0.3002302797E-02      0.4941834990E-02

    ------------------------------------------------
       NWT REQUIRED            5 OUTER ITERATIONS 
       AND A TOTAL OF          9 INNER ITERATIONS.
    ------------------------------------------------

 NO OUTPUT CONTROL FOR STRESS PERIOD   46   TIME STEP   21
 
 SOLVING FOR HEAD 
                                                   Max.-Head-Change                         Max.-Flux-Residual
  Residual-Control   Outer-Iter.   Inner-Iter.     Column Row Layer    Maximum-Head-Change  Column Row Layer    Maximum-Flux-Residual          L2-NORM 
          0                 1           2             4    7     1       0.7413648633E-01       4    7    1         0.3889928891E+01      0.8490824548E+01
          0                 2           2             4    7     1      -0.4971196514E-01       4    7    1        -0.2669802448E+01      0.6268694625E+01
          0                 3           2             4    7     1       0.3382830415E-02       4    7    1         0.1868852275E+00      0.4515051879E+00
          0                 4           2             5    8     1       0.2129306527E-03       5    8    1         0.1264334056E-01      0.2114771246E-01
          0                 5           1             5    8     1      -0.8474723636E-05       5    8    1        -0.5105396635E-03      0.5563227900E-03

    ------------------------------------------------
       NWT REQUIRED            5 OUTER ITERATIONS 
       AND A TOTAL OF          9 INNER ITERATIONS.
    ------------------------------------------------

 NO OUTPUT CONTROL FOR STRESS PERIOD   46   TIME STEP   22
 
 SOLVING FOR HEAD 
                                                   Max.-Head-Change                         Max.-Flux-Residual
  Residual-Control   Outer-Iter.   Inner-Iter.     Column Row Layer    Maximum-Head-Change  Column Row Layer    Maximum-Flux-Residual          L2-NORM 
          0                 1           2             4    7     1       0.7359951740E-01       4    7    1         0.3862474766E+01      0.8414622660E+01
          0                 2           2             4    7     1      -0.1061177428E-01       4    7    1        -0.5716225405E+00      0.1227427166E+01
          0                 3           2             4    7     1       0.3872479330E-02       4    7    1         0.2137762281E+00      0.5005747329E+00
          0                 4           2             5    8     1       0.3598630838E-03       5    8    1         0.2125957312E-01      0.2941244043E-01
          0                 5           1             5    8     1       0.5802080894E-04       5    8    1         0.3359688641E-02      0.4791595765E-02

    ------------------------------------------------
       NWT REQUIRED            5 OUTER ITERATIONS 
       AND A TOTAL OF          9 INNER ITERATIONS.
    ------------------------------------------------

 NO OUTPUT CONTROL FOR STRESS PERIOD   46   TIME STEP   23
 
 SOLVING FOR HEAD 
                                                   Max.-Head-Change                         Max.-Flux-Residual
  Residual-Control   Outer-Iter.   Inner-Iter.     Column Row Layer    Maximum-Head-Change  Column Row Layer    Maximum-Flux-Residual          L2-NORM 
          0                 1           2             4    7     1       0.7283921486E-01       4    7    1         0.3824157466E+01      0.8245167993E+01
          0                 2           2             4    7     1      -0.4831278349E-01       4    7    1        -0.2594919927E+01      0.6077978872E+01
          0                 3           2             5    8     1      -0.3344609266E-02       5    8    1        -0.1951410312E+00      0.4454049412E+00
          0                 4           2             5    8     1       0.2277866728E-03       5    8    1         0.1350243897E-01      0.2128156237E-01
          0                 5           1             5    8     1      -0.9065999503E-05       5    8    1        -0.5458760529E-03      0.5867233768E-03

    ------------------------------------------------
       NWT REQUIRED            5 OUTER ITERATIONS 
       AND A TOTAL OF          9 INNER ITERATIONS.
    ------------------------------------------------

 NO OUTPUT CONTROL FOR STRESS PERIOD   46   TIME STEP   24
 
 SOLVING FOR HEAD 
                                                   Max.-Head-Change                         Max.-Flux-Residual
  Residual-Control   Outer-Iter.   Inner-Iter.     Column Row Layer    Maximum-Head-Change  Column Row Layer    Maximum-Flux-Residual          L2-NORM 
          0                 1           2             4    7     1       0.7226980127E-01       4    7    1         0.3794758703E+01      0.8174804216E+01
          0                 2           2             4    7     1      -0.1220657335E-01       4    7    1        -0.6573826451E+00      0.1412612315E+01
          0                 3           2             4    7     1       0.5608161598E-02       4    7    1         0.3095392100E+00      0.7299521732E+00
          0                 4           2             5    8     1       0.5685192697E-03       5    8    1         0.3350845568E-01      0.4260176293E-01
          0                 5           1             5    8     1       0.7079963787E-04       5    8    1         0.4127887278E-02      0.5307070049E-02

    ------------------------------------------------
       NWT REQUIRED            5 OUTER ITERATIONS 
       AND A TOTAL OF          9 INNER ITERATIONS.
    ------------------------------------------------

 NO OUTPUT CONTROL FOR STRESS PERIOD   46   TIME STEP   25
 
 SOLVING FOR HEAD 
                                                   Max.-Head-Change                         Max.-Flux-Residual
  Residual-Control   Outer-Iter.   Inner-Iter.     Column Row Layer    Maximum-Head-Change  Column Row Layer    Maximum-Flux-Residual          L2-NORM 
          0                 1           2             4    7     1       0.7148869647E-01       4    7    1         0.3755088602E+01      0.8014191809E+01
          0                 2           2             4    7     1      -0.4443713247E-01       4    7    1        -0.2387090787E+01      0.5565859800E+01
          0                 3           2             5    8     1      -0.3536525040E-02       5    8    1        -0.2055736412E+00      0.4209795485E+00
          0                 4           2             4    7     1      -0.1203693921E-03       4    7    1        -0.6834222308E-02      0.1624716904E-01
          0                 5           1             5    8     1      -0.3949122917E-05       5    8    1        -0.2389497722E-03      0.3083984253E-03

    ------------------------------------------------
       NWT REQUIRED            5 OUTER ITERATIONS 
       AND A TOTAL OF          9 INNER ITERATIONS.
    ------------------------------------------------

 NO OUTPUT CONTROL FOR STRESS PERIOD   46   TIME STEP   26
 
 SOLVING FOR HEAD 
                                                   Max.-Head-Change                         Max.-Flux-Residual
  Residual-Control   Outer-Iter.   Inner-Iter.     Column Row Layer    Maximum-Head-Change  Column Row Layer    Maximum-Flux-Residual          L2-NORM 
          0                 1           2             4    7     1       0.7088313229E-01       4    7    1         0.3723660742E+01      0.7942888497E+01
          0                 2           2             4    7     1      -0.1414737042E-01       4    7    1        -0.7616758928E+00      0.1643510241E+01
          0                 3           2             4    7     1       0.7816632386E-02       4    7    1         0.4313806129E+00      0.1022890197E+01
          0                 4           2             5    8     1       0.7938104709E-03       5    8    1         0.4682800829E-01      0.6144576478E-01
          0                 5           1             5    8     1       0.9275693475E-04       5    8    1         0.5417874131E-02      0.6185356886E-02

    ------------------------------------------------
       NWT REQUIRED            5 OUTER ITERATIONS 
       AND A TOTAL OF          9 INNER ITERATIONS.
    ------------------------------------------------

 NO OUTPUT CONTROL FOR STRESS PERIOD   46   TIME STEP   27
 
 SOLVING FOR HEAD 
                                                   Max.-Head-Change                         Max.-Flux-Residual
  Residual-Control   Outer-Iter.   Inner-Iter.     Column Row Layer    Maximum-Head-Change  Column Row Layer    Maximum-Flux-Residual          L2-NORM 
          0                 1           2             4    7     1       0.7008852831E-01       4    7    1         0.3683055042E+01      0.7790213892E+01
          0                 2           2             4    7     1      -0.4254643196E-01       4    7    1        -0.2285740498E+01      0.5315428804E+01
          0                 3           2             5    8     1      -0.3357032871E-02       5    8    1        -0.1951704853E+00      0.4017079533E+00
          0                 4           2             5    8     1      -0.2346084437E-03       5    8    1        -0.1311521076E-01      0.1950232791E-01
          0                 5           1             5    8     1       0.1598052720E-04       5    8    1         0.9299347671E-03      0.9460604687E-03

    ------------------------------------------------
       NWT REQUIRED            5 OUTER ITERATIONS 
       AND A TOTAL OF          9 INNER ITERATIONS.
    ------------------------------------------------

 NO OUTPUT CONTROL FOR STRESS PERIOD   46   TIME STEP   28
 
 SOLVING FOR HEAD 
                                                   Max.-Head-Change                         Max.-Flux-Residual
  Residual-Control   Outer-Iter.   Inner-Iter.     Column Row Layer    Maximum-Head-Change  Column Row Layer    Maximum-Flux-Residual          L2-NORM 
          0                 1           2             4    7     1       0.6946388532E-01       4    7    1         0.3650479846E+01      0.7721897287E+01
          0                 2           2             4    7     1      -0.1416817373E-01       4    7    1        -0.7628901238E+00      0.1638921224E+01
          0                 3           2             4    7     1       0.7968012927E-02       4    7    1         0.4397382420E+00      0.1043319863E+01
          0                 4           2             5    8     1       0.8105504350E-03       5    8    1         0.4782140423E-01      0.6301715421E-01
          0                 5           1             5    8     1       0.1141008826E-03       5    8    1         0.6629228115E-02      0.7501685309E-02
          0                 6           1             4   13     1      -0.2622587026E-04       4   13    1        -0.1628555942E-02      0.2843083569E-02

    ------------------------------------------------
       NWT REQUIRED            6 OUTER ITERATIONS 
       AND A TOTAL OF         10 INNER ITERATIONS.
    ------------------------------------------------

 NO OUTPUT CONTROL FOR STRESS PERIOD   46   TIME STEP   29
 
 SOLVING FOR HEAD 
                                                   Max.-Head-Change                         Max.-Flux-Residual
  Residual-Control   Outer-Iter.   Inner-Iter.     Column Row Layer    Maximum-Head-Change  Column Row Layer    Maximum-Flux-Residual          L2-NORM 
          0                 1           2             4    7     1       0.6866227291E-01       4    7    1         0.3609323516E+01      0.7576481322E+01
          0                 2           2             4    7     1      -0.3950236762E-01       4    7    1        -0.2122462899E+01      0.4916001831E+01
          0                 3           2             5    8     1      -0.3062006622E-02       5    8    1        -0.1780844638E+00      0.3708435482E+00
          0                 4           2             5    8     1      -0.3194054547E-03       5    8    1        -0.1793939038E-01      0.2237394731E-01
          0                 5           1             5    8     1      -0.3331518825E-04       5    8    1        -0.1891425217E-02      0.1897936379E-02

    ------------------------------------------------
       NWT REQUIRED            5 OUTER ITERATIONS 
       AND A TOTAL OF          9 INNER ITERATIONS.
    ------------------------------------------------

 NO OUTPUT CONTROL FOR STRESS PERIOD   46   TIME STEP   30



 STREAM LISTING     PERIOD     46   STEP       30

 LAYER ROW COL. STREAM  RCH.  FLOW INTO     FLOW TO   FLOW OUT OF   OVRLND.     DIRECT     STREAM       STREAM     STREAM     STREAM   STREAMBED  STREAMBED
                SEG.NO.  NO.  STRM. RCH.    AQUIFER    STRM. RCH.    RUNOFF     PRECIP       ET          HEAD       DEPTH      WIDTH   CONDCTNC.   GRADIENT

   1    1    1     1     1    9.3747E+00  1.4265E-01   9.2321E+00  0.000E+00  0.000E+00  0.000E+00  1.09393E+03  8.788E-01  8.172E+00  3.678E-02  1.293E+00
   1    2    2     1     2    9.2321E+00  2.1921E-01   9.0129E+00  0.000E+00  0.000E+00  0.000E+00  1.08893E+03  8.731E-01  8.085E+00  5.660E-02  1.291E+00
   1    3    3     1     3    9.0129E+00  1.8531E-01   8.8275E+00  0.000E+00  0.000E+00  0.000E+00  1.08329E+03  8.667E-01  7.987E+00  4.792E-02  1.289E+00
   1    3    4     1     4    8.8275E+00  1.6930E-01   8.6583E+00  0.000E+00  0.000E+00  0.000E+00  1.07827E+03  8.609E-01  7.901E+00  4.385E-02  1.287E+00
   1    4    5     2     1    6.6583E+00  2.7605E-01   6.3822E+00  0.000E+00  0.000E+00  0.000E+00  1.07247E+03  5.391E-01  1.200E+01  7.800E-02  1.180E+00
   1    5    6     2     2    6.3822E+00  2.1162E-01   6.1706E+00  0.000E+00  0.000E+00  0.000E+00  1.06704E+03  5.270E-01  1.200E+01  6.000E-02  1.176E+00
   1    6    6     2     3    6.1706E+00  2.1097E-01   5.9596E+00  0.000E+00  0.000E+00  0.000E+00  1.06231E+03  5.162E-01  1.200E+01  6.000E-02  1.172E+00
   1    7    6     2     4    5.9596E+00  2.1032E-01   5.7493E+00  0.000E+00  0.000E+00  0.000E+00  1.05758E+03  5.054E-01  1.200E+01  6.000E-02  1.168E+00
   1    8    6     2     5    5.7493E+00  2.0967E-01   5.5396E+00  0.000E+00  0.000E+00  0.000E+00  1.05285E+03  4.944E-01  1.200E+01  6.000E-02  1.165E+00
   1    3    5     3     1    2.0000E+00  2.8252E-01   1.7175E+00  0.000E+00  0.000E+00  0.000E+00  1.07555E+03  1.909E+00  9.636E+00  7.227E-02  1.955E+00
   1    3    6     3     2    1.7175E+00  2.4905E-01   1.4684E+00  0.000E+00  0.000E+00  0.000E+00  1.07264E+03  1.727E+00  8.909E+00  6.682E-02  1.864E+00
   1    3    7     3     3    1.4684E+00  1.9718E-01   1.2712E+00  0.000E+00  0.000E+00  0.000E+00  1.06987E+03  1.555E+00  8.218E+00  5.547E-02  1.777E+00
   1    4    8     3     4    1.2712E+00  2.2567E-01   1.0456E+00  0.000E+00  0.000E+00  0.000E+00  1.06682E+03  1.364E+00  7.455E+00  6.709E-02  1.682E+00
   1    5    8     3     5    1.0456E+00  1.5790E-01   8.8768E-01  0.000E+00  0.000E+00  0.000E+00  1.06362E+03  1.164E+00  6.655E+00  4.991E-02  1.582E+00
   1    6    8     3     6    8.8768E-01  5.5980E-02   8.3170E-01  0.000E+00  0.000E+00  0.000E+00  1.06158E+03  1.036E+00  6.145E+00  1.844E-02  1.518E+00
   1    5   10     4     1    1.0000E+01  9.0919E-02   9.9091E+00  0.000E+00  0.000E+00  0.000E+00  1.07836E+03  6.368E-01  1.000E+01  2.500E-02  1.212E+00
   1    5    9     4     2    9.9091E+00  1.8158E-01   9.7275E+00  0.000E+00  0.000E+00  0.000E+00  1.07154E+03  6.315E-01  1.000E+01  5.000E-02  1.211E+00
   1    6    8     4     3    9.7275E+00  1.2689E-01   9.6006E+00  0.000E+00  0.000E+00  0.000E+00  1.06381E+03  6.256E-01  1.000E+01  3.500E-02  1.209E+00
   1    6    8     5     1    1.0432E+01  2.2686E-01   1.0205E+01  0.000E+00  0.000E+00  0.000E+00  1.05868E+03  6.790E-01  1.542E+01  6.166E-02  1.226E+00
   1    7    7     5     2    1.0205E+01  2.7894E-01   9.9265E+00  0.000E+00  0.000E+00  0.000E+00  1.05417E+03  6.732E-01  1.519E+01  7.594E-02  1.224E+00
   1    8    7     5     3    9.9265E+00  1.9221E-01   9.7343E+00  0.000E+00  0.000E+00  0.000E+00  1.04992E+03  6.676E-01  1.497E+01  5.241E-02  1.223E+00
   1    8    6     5     4    9.7343E+00  1.3577E-01   9.5985E+00  0.000E+00  0.000E+00  0.000E+00  1.04691E+03  6.637E-01  1.482E+01  3.706E-02  1.221E+00
   1    9    6     6     1    9.5985E+00  2.2097E-01   9.3776E+00  0.000E+00  0.000E+00  0.000E+00  1.04341E+03  6.828E-01  1.200E+01  6.000E-02  1.228E+00
   1   10    7     6     2    9.3776E+00  2.2039E-01   9.1572E+00  0.000E+00  0.000E+00  0.000E+00  1.03885E+03  6.732E-01  1.200E+01  6.000E-02  1.224E+00
   1   11    7     6     3    9.1572E+00  2.1981E-01   8.9374E+00  0.000E+00  0.000E+00  0.000E+00  1.03430E+03  6.636E-01  1.200E+01  6.000E-02  1.221E+00
   1   12    7     6     4    8.9374E+00  2.1923E-01   8.7181E+00  0.000E+00  0.000E+00  0.000E+00  1.02974E+03  6.539E-01  1.200E+01  6.000E-02  1.218E+00
   1   13    7     6     5    8.7181E+00  1.7434E-03   8.7164E+00  0.000E+00  0.000E+00  0.000E+00  1.02656E+03  6.489E-01  1.200E+01  2.400E-02  2.421E-02
   1   14    9     7     1    1.5000E+02  1.4022E+00   1.4860E+02  0.000E+00  0.000E+00  0.000E+00  1.03987E+03  2.288E+00  5.529E+01  5.593E-01  8.357E-01
   1   13    8     7     2    1.4860E+02  2.0320E+00   1.4657E+02  0.000E+00  0.000E+00  0.000E+00  1.03478E+03  2.278E+00  5.525E+01  6.147E-01  1.102E+00
   1   13    7     7     3    1.4657E+02  1.7879E+00   1.4478E+02  0.000E+00  0.000E+00  0.000E+00  1.02969E+03  2.268E+00  5.521E+01  5.583E-01  1.067E+00
   1   13    6     8     1    1.5349E+02  1.1342E+00   1.5236E+02  0.000E+00  0.000E+00  0.000E+00  1.02471E+03  2.837E+00  4.114E+01  4.192E-01  9.018E-01
   1   13    5     8     2    1.5236E+02  3.8328E-01   1.5198E+02  0.000E+00  0.000E+00  0.000E+00  1.01846E+03  2.832E+00  4.106E+01  4.185E-01  3.053E-01
   1   13    4     8     3    1.5198E+02 -1.7250E+00   1.5370E+02  0.000E+00  0.000E+00  0.000E+00  1.01221E+03  2.837E+00  4.113E+01  4.192E+00 -1.372E-01
   1   13    3     8     4    1.5370E+02 -3.2973E+00   1.5700E+02  0.000E+00  0.000E+00  0.000E+00  1.00598E+03  2.854E+00  4.138E+01  4.217E+00 -2.606E-01
   1   13    2     8     5    1.5700E+02 -2.5089E+00   1.5951E+02  0.000E+00  0.000E+00  0.000E+00  9.99749E+02  2.874E+00  4.167E+01  4.247E+00 -1.969E-01
   1   13    1     8     6    1.5951E+02 -1.9699E+00   1.6148E+02  0.000E+00  0.000E+00  0.000E+00  9.94764E+02  2.889E+00  4.189E+01  2.561E+00 -2.564E-01
   1    8    6     9     1    5.5396E+00  0.0000E+00   5.5396E+00  0.000E+00  0.000E+00  0.000E+00  1.08034E+03  1.590E+00  4.000E+00  0.000E+00  1.530E+00
   1    8    5     9     2    5.5396E+00  0.0000E+00   5.5396E+00  0.000E+00  0.000E+00  0.000E+00  1.07984E+03  1.590E+00  4.000E+00  0.000E+00  1.530E+00





UNSATURATED ZONE PACKAGE VOLUMETRIC BUDGET FOR  TIME STEP    30 STRESS PERIOD   46
  ------------------------------------------------------------------------------



     CUMULATIVE VOLUMES      L**3       RATES FOR THIS TIME STEP      L**3/T
     ------------------                 ------------------------

           IN:                                      IN:
           ---                                      ---
        INFILTRATION =  2438544735.0295          INFILTRATION =          20.5164

          OUT:                                     OUT:
          ----                                     ----
              UZF ET =  1973156013.8385                UZF ET =          15.3575
        UZF RECHARGE =    68813360.6917          UZF RECHARGE =           0.0204

            IN - OUT =   396575360.4993              IN - OUT =           5.1385

          STORAGE:                                 STORAGE:
          --------                                 --------
      STORAGE CHANGE =   396575318.7457        STORAGE CHANGE =           5.1385

 PERCENT DISCREPANCY IS DIFFERENCE BETWEEN IN-OUT MINUS CHANGE IN STORAGE
 DIVIDED BY THE AVERAGE OF IN AND OUT TIMES 100

 PERCENT DISCREPANCY =           0.00     PERCENT DISCREPANCY =           0.00






1
  VOLUMETRIC BUDGET FOR AGRICULTURAL FIELDS AT  END OF TIME STEP   30, STRESS PERIOD  46
  ------------------------------------------------------------------------------

     CUMULATIVE VOLUMES      L**3       RATES FOR THIS TIME STEP      L**3/T
     ------------------                 ------------------------

           IN:                                      IN:
           ---                                      ---
               AG WELLS  =  1211355136.0000                 AG WELLS  =          10.5692
      DIVERSION SEGMENTS =   706035456.0000        DIVERSION SEGMENTS =           5.5396
           GW IRRIGATION =           0.0000             GW IRRIGATION =           0.0000
           SW IRRIGATION =           0.0000             SW IRRIGATION =           0.0000
        SYSTEM LOSSES GW =           0.0000          SYSTEM LOSSES GW =           0.0000
        SYSTEM LOSSES SW =           0.0000          SYSTEM LOSSES SW =           0.0000

                TOTAL IN =  1917390592.0000                  TOTAL IN =          16.1088

          OUT:                                     OUT:
          ----                                     ----
               AG WELLS  =           0.0000                 AG WELLS  =           0.0000
      DIVERSION SEGMENTS =           0.0000        DIVERSION SEGMENTS =           0.0000
           GW IRRIGATION =  1211355136.0000             GW IRRIGATION =          10.5692
           SW IRRIGATION =   706048896.0000             SW IRRIGATION =           5.5397
        SYSTEM LOSSES GW =           0.0000          SYSTEM LOSSES GW =           0.0000
        SYSTEM LOSSES SW =           0.0000          SYSTEM LOSSES SW =           0.0000

               TOTAL OUT =  1917404032.0000                 TOTAL OUT =          16.1089

                IN - OUT =      -13440.0000                  IN - OUT =      -1.1063E-04

     PERCENT DISCREPANCY =          -0.00         PERCENT DISCREPANCY =          -0.00



1
  VOLUMETRIC BUDGET FOR ENTIRE MODEL AT END OF TIME STEP   30, STRESS PERIOD  46
  ------------------------------------------------------------------------------

     CUMULATIVE VOLUMES      L**3       RATES FOR THIS TIME STEP      L**3/T
     ------------------                 ------------------------

           IN:                                      IN:
           ---                                      ---
             STORAGE     =  1708055296.0000               STORAGE     =          14.9195
       CONSTANT HEAD     =           0.0000         CONSTANT HEAD     =           0.0000
     HEAD DEP BOUNDS     =    34194508.0000       HEAD DEP BOUNDS     =           0.2903
      STREAM LEAKAGE     =  1418614656.0000        STREAM LEAKAGE     =          11.8583
        UZF RECHARGE     =    68813368.0000          UZF RECHARGE     =       2.0367E-02
               GW ET     =           0.0000                 GW ET     =           0.0000
     SURFACE LEAKAGE     =           0.0000       SURFACE LEAKAGE     =           0.0000
           AG WELLS      =           0.0000             AG WELLS      =           0.0000

                TOTAL IN =  3229677824.0000                  TOTAL IN =          27.0884

          OUT:                                     OUT:
          ----                                     ----
             STORAGE     =   814702528.0000               STORAGE     =           6.7319
       CONSTANT HEAD     =           0.0000         CONSTANT HEAD     =           0.0000
     HEAD DEP BOUNDS     =    34085992.0000       HEAD DEP BOUNDS     =           0.2863
      STREAM LEAKAGE     =  1169540480.0000        STREAM LEAKAGE     =           9.5012
        UZF RECHARGE     =           0.0000          UZF RECHARGE     =           0.0000
               GW ET     =           0.0000                 GW ET     =           0.0000
     SURFACE LEAKAGE     =           0.0000       SURFACE LEAKAGE     =           0.0000
           AG WELLS      =  1211355136.0000             AG WELLS      =          10.5692

               TOTAL OUT =  3229684224.0000                 TOTAL OUT =          27.0886

                IN - OUT =       -6400.0000                  IN - OUT =      -1.9073E-04

     PERCENT DISCREPANCY =          -0.00         PERCENT DISCREPANCY =          -0.00






         TIME SUMMARY AT END OF TIME STEP   30 IN STRESS PERIOD   46
                    SECONDS     MINUTES      HOURS       DAYS        YEARS
                    -----------------------------------------------------------
   TIME STEP LENGTH  87667.      1461.1      24.352      1.0147     2.77799E-03
 STRESS PERIOD TIME 2.63000E+06  43833.      730.56      30.440     8.33397E-02
         TOTAL TIME 1.18435E+08 1.97392E+06  32899.      1370.8      3.7530    
1
1
                            STRESS PERIOD NO.   47, LENGTH =   2630000.    
                            -----------------------------------------------

                              NUMBER OF TIME STEPS =    30

                               MULTIPLIER FOR DELT =     1.000

                            INITIAL TIME STEP SIZE =   87666.66    

 REUSING NON-PARAMETER GHB CELLS FROM LAST STRESS PERIOD

      2 GHB CELLS

 REUSING STREAM SEGMENT DATA FROM LAST STRESS PERIOD



            AREAL INFILTRATION RATE
 READING ON UNIT   19 WITH FORMAT: (10F4.0)            

            1           2           3           4           5           6           7           8           9          10
 ........................................................................................................................
   1   1.2000E-09   0.000       0.000       0.000       0.000       0.000       0.000       0.000       0.000       0.000    
   2   2.1000E-09  2.0000E-09  8.0000E-10  8.5000E-09   0.000       0.000       0.000       0.000       0.000       0.000    
   3   5.0000E-10  1.1000E-09  8.8000E-09  5.5000E-09   0.000       0.000       0.000       0.000       0.000       0.000    
   4   8.5000E-09  1.1000E-09  1.1000E-09  1.1000E-09  2.0000E-09   0.000       0.000       0.000       0.000       0.000    
   5   8.5000E-09  1.1000E-09  1.1000E-09  1.1000E-09  1.1000E-09   0.000       0.000       0.000       0.000       0.000    
   6   8.5000E-09  5.2000E-09  2.1000E-09  1.1000E-09  1.5000E-09   0.000       0.000       0.000       0.000       0.000    
   7   8.5000E-09  5.2000E-09  2.1000E-09  1.2000E-09  2.0000E-09   0.000       0.000       0.000       0.000       0.000    
   8   5.0000E-10  5.2000E-09  2.1000E-09  1.2000E-09  5.0000E-09   0.000       0.000       0.000       0.000       0.000    
   9   5.0000E-10  5.2000E-09  2.1000E-09  1.2000E-09  5.0000E-09   0.000       0.000       0.000       0.000       0.000    
  10   5.0000E-10  5.2000E-09  2.1000E-09  1.2000E-09  5.8000E-09   0.000       0.000       0.000       0.000       0.000    
  11   1.0000E-10  1.1000E-09  1.1000E-09  1.2000E-09  5.0000E-09   0.000       0.000       0.000       0.000       0.000    
  12   1.1000E-09  1.1000E-09  1.1000E-09  1.1000E-09  2.0000E-09   0.000       0.000       0.000       0.000       0.000    
  13   1.1000E-09  2.2000E-09  2.2000E-09  2.1000E-09  1.0000E-09   0.000       0.000       0.000       0.000       0.000    
  14   2.0000E-10  5.5000E-09  5.5000E-09  5.2000E-09  1.0000E-09   0.000       0.000       0.000       0.000       0.000    
  15    0.000      8.8000E-09  8.8000E-09   0.000       0.000       0.000       0.000       0.000       0.000       0.000    

                  ET RATE =  5.000000E-09

 USING ET EXTINCTION DEPTH FROM PREVIOUS STRESS PERIOD. CURRENT PERIOD IS:      47

 USING EXTINCTION WATER CONTENT FROM PREVIOUS STRESS PERIOD. CURRENT PERIOD IS:      47

 USING AIR ENTRY PRESSURE FROM PREVIOUS STRESS PERIOD. CURRENT PERIOD IS:      47

 USING ROOT PRESSURE HEAD FROM PREVIOUS STRESS PERIOD. CURRENT PERIOD IS:      47

 USING ROOT ACTIVITY FROM PREVIOUS STRESS PERIOD. CURRENT PERIOD IS:      47

 PROCESSING AG STRESS PERIOD DATA

 READING AG STRESS PERIOD DATA

 READING IRRIGATION SEGMENT

 READING IRRIGATION WELL

 READING SUPPLEMENTAL WELL

 END PROCESSING AG STRESS PERIOD DATA OPTIONS
 
 SOLVING FOR HEAD 
                                                   Max.-Head-Change                         Max.-Flux-Residual
  Residual-Control   Outer-Iter.   Inner-Iter.     Column Row Layer    Maximum-Head-Change  Column Row Layer    Maximum-Flux-Residual          L2-NORM 
          0                 1           2             4    7     1       0.6801875300E-01       4    7    1         0.3575663131E+01      0.7509085209E+01
          0                 2           2             4    7     1      -0.6623534724E-02       4    7    1        -0.3580867640E+00      0.7467884716E+00
          0                 3           2             4    7     1       0.4523050516E-03       4    7    1         0.2512529699E-01      0.5249048348E-01
          0                 4           1             4    7     1      -0.1915122005E-04       4    7    1        -0.1093883887E-02      0.2412433512E-02

    ------------------------------------------------
       NWT REQUIRED            4 OUTER ITERATIONS 
       AND A TOTAL OF          7 INNER ITERATIONS.
    ------------------------------------------------

 NO OUTPUT CONTROL FOR STRESS PERIOD   47   TIME STEP    1
 
 SOLVING FOR HEAD 
                                                   Max.-Head-Change                         Max.-Flux-Residual
  Residual-Control   Outer-Iter.   Inner-Iter.     Column Row Layer    Maximum-Head-Change  Column Row Layer    Maximum-Flux-Residual          L2-NORM 
          0                 1           2             4    7     1       0.6721393311E-01       4    7    1         0.3534194187E+01      0.7368489645E+01
          0                 2           2             4    7     1      -0.6844091682E-02       4    7    1        -0.3699736074E+00      0.7631238886E+00
          0                 3           2             4    7     1       0.5624221022E-03       4    7    1         0.3120468723E-01      0.6576281727E-01
          0                 4           1             5    8     1       0.5839660957E-04       5    8    1         0.3197309808E-02      0.4493126256E-02

    ------------------------------------------------
       NWT REQUIRED            4 OUTER ITERATIONS 
       AND A TOTAL OF          7 INNER ITERATIONS.
    ------------------------------------------------

 NO OUTPUT CONTROL FOR STRESS PERIOD   47   TIME STEP    2
 
 SOLVING FOR HEAD 
                                                   Max.-Head-Change                         Max.-Flux-Residual
  Residual-Control   Outer-Iter.   Inner-Iter.     Column Row Layer    Maximum-Head-Change  Column Row Layer    Maximum-Flux-Residual          L2-NORM 
          0                 1           2             4    7     1       0.6640485678E-01       4    7    1         0.3492419487E+01      0.7233053092E+01
          0                 2           2             4    7     1      -0.7351726077E-02       4    7    1        -0.3972577406E+00      0.8113609766E+00
          0                 3           2             4    7     1       0.1371102098E-02       4    7    1         0.7581961484E-01      0.1715279961E+00
          0                 4           1             5    8     1       0.8193900884E-04       5    8    1         0.4607622373E-02      0.8069547628E-02

    ------------------------------------------------
       NWT REQUIRED            4 OUTER ITERATIONS 
       AND A TOTAL OF          7 INNER ITERATIONS.
    ------------------------------------------------

 NO OUTPUT CONTROL FOR STRESS PERIOD   47   TIME STEP    3
 
 SOLVING FOR HEAD 
                                                   Max.-Head-Change                         Max.-Flux-Residual
  Residual-Control   Outer-Iter.   Inner-Iter.     Column Row Layer    Maximum-Head-Change  Column Row Layer    Maximum-Flux-Residual          L2-NORM 
          0                 1           2             4    7     1       0.6559117386E-01       4    7    1         0.3450333216E+01      0.7101736461E+01
          0                 2           2             4    7     1      -0.7216740820E-02       4    7    1        -0.3900499954E+00      0.7924533405E+00
          0                 3           2             4    7     1       0.1307540746E-02       4    7    1         0.7231594709E-01      0.1629570893E+00
          0                 4           1             5    8     1       0.7748643250E-04       5    8    1         0.4357885364E-02      0.7657744761E-02

    ------------------------------------------------
       NWT REQUIRED            4 OUTER ITERATIONS 
       AND A TOTAL OF          7 INNER ITERATIONS.
    ------------------------------------------------

 NO OUTPUT CONTROL FOR STRESS PERIOD   47   TIME STEP    4
 
 SOLVING FOR HEAD 
                                                   Max.-Head-Change                         Max.-Flux-Residual
  Residual-Control   Outer-Iter.   Inner-Iter.     Column Row Layer    Maximum-Head-Change  Column Row Layer    Maximum-Flux-Residual          L2-NORM 
          0                 1           2             4    7     1       0.6477514755E-01       4    7    1         0.3408055476E+01      0.6974686040E+01
          0                 2           2             4    7     1      -0.7154814413E-02       4    7    1        -0.3867560205E+00      0.7818082917E+00
          0                 3           2             4    7     1       0.1320245071E-02       4    7    1         0.7301914346E-01      0.1644705961E+00
          0                 4           1             5    8     1       0.7840734111E-04       5    8    1         0.4409998658E-02      0.7734958055E-02

    ------------------------------------------------
       NWT REQUIRED            4 OUTER ITERATIONS 
       AND A TOTAL OF          7 INNER ITERATIONS.
    ------------------------------------------------

 NO OUTPUT CONTROL FOR STRESS PERIOD   47   TIME STEP    5
 
 SOLVING FOR HEAD 
                                                   Max.-Head-Change                         Max.-Flux-Residual
  Residual-Control   Outer-Iter.   Inner-Iter.     Column Row Layer    Maximum-Head-Change  Column Row Layer    Maximum-Flux-Residual          L2-NORM 
          0                 1           2             4    7     1       0.6395802537E-01       4    7    1         0.3365656338E+01      0.6851688843E+01
          0                 2           2             4    7     1      -0.7086731375E-02       4    7    1        -0.3831253616E+00      0.7709055062E+00
          0                 3           2             4    7     1       0.1326647950E-02       4    7    1         0.7337425963E-01      0.1651804902E+00
          0                 4           1             5    8     1       0.7890137783E-04       5    8    1         0.4438069650E-02      0.7772938537E-02

    ------------------------------------------------
       NWT REQUIRED            4 OUTER ITERATIONS 
       AND A TOTAL OF          7 INNER ITERATIONS.
    ------------------------------------------------

 NO OUTPUT CONTROL FOR STRESS PERIOD   47   TIME STEP    6
 
 SOLVING FOR HEAD 
                                                   Max.-Head-Change                         Max.-Flux-Residual
  Residual-Control   Outer-Iter.   Inner-Iter.     Column Row Layer    Maximum-Head-Change  Column Row Layer    Maximum-Flux-Residual          L2-NORM 
          0                 1           2             4    7     1       0.6314093889E-01       4    7    1         0.3323200480E+01      0.6733457371E+01
          0                 2           2             4    7     1      -0.7016952260E-02       4    7    1        -0.3793979369E+00      0.7602364709E+00
          0                 3           2             4    7     1       0.1331284058E-02       4    7    1         0.7363149907E-01      0.1656944079E+00
          0                 4           1             5    8     1       0.7928569971E-04       5    8    1         0.4458854847E-02      0.7800354822E-02

    ------------------------------------------------
       NWT REQUIRED            4 OUTER ITERATIONS 
       AND A TOTAL OF          7 INNER ITERATIONS.
    ------------------------------------------------

 NO OUTPUT CONTROL FOR STRESS PERIOD   47   TIME STEP    7
 
 SOLVING FOR HEAD 
                                                   Max.-Head-Change                         Max.-Flux-Residual
  Residual-Control   Outer-Iter.   Inner-Iter.     Column Row Layer    Maximum-Head-Change  Column Row Layer    Maximum-Flux-Residual          L2-NORM 
          0                 1           2             4    7     1       0.6232480059E-01       4    7    1         0.3280739328E+01      0.6618821222E+01
          0                 2           2             4    7     1      -0.6942372675E-02       4    7    1        -0.3754075266E+00      0.7493950501E+00
          0                 3           2             4    7     1       0.1328468192E-02       4    7    1         0.7347725941E-01      0.1652410897E+00
          0                 4           1             5    8     1       0.7954805181E-04       5    8    1         0.4472611317E-02      0.7751124100E-02

    ------------------------------------------------
       NWT REQUIRED            4 OUTER ITERATIONS 
       AND A TOTAL OF          7 INNER ITERATIONS.
    ------------------------------------------------

 NO OUTPUT CONTROL FOR STRESS PERIOD   47   TIME STEP    8
 
 SOLVING FOR HEAD 
                                                   Max.-Head-Change                         Max.-Flux-Residual
  Residual-Control   Outer-Iter.   Inner-Iter.     Column Row Layer    Maximum-Head-Change  Column Row Layer    Maximum-Flux-Residual          L2-NORM 
          0                 1           2             4    7     1       0.6151072134E-01       4    7    1         0.3238335372E+01      0.6506800741E+01
          0                 2           2             4    7     1      -0.6864144225E-02       4    7    1        -0.3712163759E+00      0.7384271459E+00
          0                 3           2             4    7     1       0.1318114599E-02       4    7    1         0.7290684404E-01      0.1637980700E+00
          0                 4           1             5    8     1       0.7984666814E-04       5    8    1         0.4487060189E-02      0.7610992669E-02

    ------------------------------------------------
       NWT REQUIRED            4 OUTER ITERATIONS 
       AND A TOTAL OF          7 INNER ITERATIONS.
    ------------------------------------------------

 NO OUTPUT CONTROL FOR STRESS PERIOD   47   TIME STEP    9
 
 SOLVING FOR HEAD 
                                                   Max.-Head-Change                         Max.-Flux-Residual
  Residual-Control   Outer-Iter.   Inner-Iter.     Column Row Layer    Maximum-Head-Change  Column Row Layer    Maximum-Flux-Residual          L2-NORM 
          0                 1           2             4    7     1       0.6069960242E-01       4    7    1         0.3196039336E+01      0.6398099666E+01
          0                 2           2             4    7     1      -0.6784676888E-02       4    7    1        -0.3669541728E+00      0.7276135637E+00
          0                 3           2             4    7     1       0.1311911747E-02       4    7    1         0.7256506557E-01      0.1629313924E+00
          0                 4           1             5    8     1       0.7953682870E-04       5    8    1         0.4469777230E-02      0.7570012852E-02

    ------------------------------------------------
       NWT REQUIRED            4 OUTER ITERATIONS 
       AND A TOTAL OF          7 INNER ITERATIONS.
    ------------------------------------------------

 NO OUTPUT CONTROL FOR STRESS PERIOD   47   TIME STEP   10
 
 SOLVING FOR HEAD 
                                                   Max.-Head-Change                         Max.-Flux-Residual
  Residual-Control   Outer-Iter.   Inner-Iter.     Column Row Layer    Maximum-Head-Change  Column Row Layer    Maximum-Flux-Residual          L2-NORM 
          0                 1           2             4    7     1       0.5989221418E-01       4    7    1         0.3153895124E+01      0.6292559611E+01
          0                 2           2             4    7     1      -0.6705126502E-02       4    7    1        -0.3626833076E+00      0.7170556248E+00
          0                 3           2             4    7     1       0.1305127375E-02       4    7    1         0.7219090534E-01      0.1620056587E+00
          0                 4           1             5    8     1       0.7921823625E-04       5    8    1         0.4451172149E-02      0.7524039515E-02

    ------------------------------------------------
       NWT REQUIRED            4 OUTER ITERATIONS 
       AND A TOTAL OF          7 INNER ITERATIONS.
    ------------------------------------------------

 NO OUTPUT CONTROL FOR STRESS PERIOD   47   TIME STEP   11
 
 SOLVING FOR HEAD 
                                                   Max.-Head-Change                         Max.-Flux-Residual
  Residual-Control   Outer-Iter.   Inner-Iter.     Column Row Layer    Maximum-Head-Change  Column Row Layer    Maximum-Flux-Residual          L2-NORM 
          0                 1           2             4    7     1       0.5908928271E-01       4    7    1         0.3111944453E+01      0.6190026287E+01
          0                 2           2             4    7     1      -0.6622739219E-02       4    7    1        -0.3582563746E+00      0.7064343127E+00
          0                 3           2             4    7     1       0.1293910282E-02       4    7    1         0.7157193184E-01      0.1605092639E+00
          0                 4           1             5    8     1       0.7876700054E-04       5    8    1         0.4425247152E-02      0.7437685476E-02

    ------------------------------------------------
       NWT REQUIRED            4 OUTER ITERATIONS 
       AND A TOTAL OF          7 INNER ITERATIONS.
    ------------------------------------------------

 NO OUTPUT CONTROL FOR STRESS PERIOD   47   TIME STEP   12
 
 SOLVING FOR HEAD 
                                                   Max.-Head-Change                         Max.-Flux-Residual
  Residual-Control   Outer-Iter.   Inner-Iter.     Column Row Layer    Maximum-Head-Change  Column Row Layer    Maximum-Flux-Residual          L2-NORM 
          0                 1           2             4    7     1       0.5829147524E-01       4    7    1         0.3070225244E+01      0.6090375531E+01
          0                 2           2             4    7     1      -0.6544867750E-02       4    7    1        -0.3540682511E+00      0.6965243305E+00
          0                 3           2             4    7     1       0.1288213030E-02       4    7    1         0.7125721651E-01      0.1597584122E+00
          0                 4           1             5    8     1       0.7850238781E-04       5    8    1         0.4410347400E-02      0.7403122888E-02

    ------------------------------------------------
       NWT REQUIRED            4 OUTER ITERATIONS 
       AND A TOTAL OF          7 INNER ITERATIONS.
    ------------------------------------------------

 NO OUTPUT CONTROL FOR STRESS PERIOD   47   TIME STEP   13
 
 SOLVING FOR HEAD 
                                                   Max.-Head-Change                         Max.-Flux-Residual
  Residual-Control   Outer-Iter.   Inner-Iter.     Column Row Layer    Maximum-Head-Change  Column Row Layer    Maximum-Flux-Residual          L2-NORM 
          0                 1           2             4    7     1       0.5749937681E-01       4    7    1         0.3028771367E+01      0.5993469305E+01
          0                 2           2             4    7     1      -0.6467593312E-02       4    7    1        -0.3499089703E+00      0.6868838136E+00
          0                 3           2             4    7     1       0.1282612879E-02       4    7    1         0.7094762838E-01      0.1590337718E+00
          0                 4           1             5    8     1       0.7824871856E-04       5    8    1         0.4396063316E-02      0.7370252369E-02

    ------------------------------------------------
       NWT REQUIRED            4 OUTER ITERATIONS 
       AND A TOTAL OF          7 INNER ITERATIONS.
    ------------------------------------------------

 NO OUTPUT CONTROL FOR STRESS PERIOD   47   TIME STEP   14
 
 SOLVING FOR HEAD 
                                                   Max.-Head-Change                         Max.-Flux-Residual
  Residual-Control   Outer-Iter.   Inner-Iter.     Column Row Layer    Maximum-Head-Change  Column Row Layer    Maximum-Flux-Residual          L2-NORM 
          0                 1           2             4    7     1       0.5671366381E-01       4    7    1         0.2987620788E+01      0.5899209661E+01
          0                 2           2             4    7     1      -0.6390979137E-02       4    7    1        -0.3457821874E+00      0.6775035587E+00
          0                 3           2             4    7     1       0.1277109764E-02       4    7    1         0.7064318235E-01      0.1583343432E+00
          0                 4           1             5    8     1       0.7800665397E-04       5    8    1         0.4382428814E-02      0.7338757020E-02

    ------------------------------------------------
       NWT REQUIRED            4 OUTER ITERATIONS 
       AND A TOTAL OF          7 INNER ITERATIONS.
    ------------------------------------------------

 NO OUTPUT CONTROL FOR STRESS PERIOD   47   TIME STEP   15
 
 SOLVING FOR HEAD 
                                                   Max.-Head-Change                         Max.-Flux-Residual
  Residual-Control   Outer-Iter.   Inner-Iter.     Column Row Layer    Maximum-Head-Change  Column Row Layer    Maximum-Flux-Residual          L2-NORM 
          0                 1           2             4    7     1       0.5593454309E-01       4    7    1         0.2946786843E+01      0.5807469560E+01
          0                 2           2             4    7     1      -0.6315037250E-02       4    7    1        -0.3416887974E+00      0.6683707648E+00
          0                 3           2             4    7     1       0.1271694729E-02       4    7    1         0.7034340216E-01      0.1576578574E+00
          0                 4           1             5    8     1       0.7777374493E-04       5    8    1         0.4369309910E-02      0.7308391850E-02

    ------------------------------------------------
       NWT REQUIRED            4 OUTER ITERATIONS 
       AND A TOTAL OF          7 INNER ITERATIONS.
    ------------------------------------------------

 NO OUTPUT CONTROL FOR STRESS PERIOD   47   TIME STEP   16
 
 SOLVING FOR HEAD 
                                                   Max.-Head-Change                         Max.-Flux-Residual
  Residual-Control   Outer-Iter.   Inner-Iter.     Column Row Layer    Maximum-Head-Change  Column Row Layer    Maximum-Flux-Residual          L2-NORM 
          0                 1           2             5    8     1       0.1628016513E+00       5    8    1         0.8908395587E+01      0.1050265216E+02
          0                 2           2             5    8     1       0.6346027410E-01       5    8    1         0.3510660836E+01      0.3571348643E+01
          0                 3           2             5    8     1       0.2594561952E-01       5    8    1         0.1429602086E+01      0.1437445500E+01
          0                 4           2             5    8     1       0.1025531762E-01       5    8    1         0.5659447911E+00      0.5659668641E+00
          0                 5           1             5    8     1       0.4054332564E-02       5    8    1         0.2237023935E+00      0.2237043331E+00
          0                 6           1             5    8     1       0.1603502319E-02       5    8    1         0.8847571792E-01      0.8847649494E-01
          0                 7           1             5    8     1       0.6347429825E-03       5    8    1         0.3502200034E-01      0.3502267830E-01
          0                 8           1             5    8     1       0.2517213917E-03       5    8    1         0.1388804575E-01      0.1389153310E-01
          0                 9           1             5    8     1       0.1002082607E-03       5    8    1         0.5528129285E-02      0.5533110315E-02
          0                10           1             5    8     1       0.4020995151E-04       5    8    1         0.2217750190E-02      0.2219522465E-02

    ------------------------------------------------
       NWT REQUIRED           10 OUTER ITERATIONS 
       AND A TOTAL OF         14 INNER ITERATIONS.
    ------------------------------------------------

 NO OUTPUT CONTROL FOR STRESS PERIOD   47   TIME STEP   17
 
 SOLVING FOR HEAD 
                                                   Max.-Head-Change                         Max.-Flux-Residual
  Residual-Control   Outer-Iter.   Inner-Iter.     Column Row Layer    Maximum-Head-Change  Column Row Layer    Maximum-Flux-Residual          L2-NORM 
          0                 1           2             5    8     1       0.1937661695E+00       5    8    1         0.1060591745E+02      0.1202995856E+02
          0                 2           2             5    8     1       0.7569660034E-01       5    8    1         0.4187160567E+01      0.4239883854E+01
          0                 3           2             5    8     1       0.3077516907E-01       5    8    1         0.1696065708E+01      0.1702727034E+01
          0                 4           2             5    8     1       0.1216347951E-01       5    8    1         0.6712665554E+00      0.6712841891E+00
          0                 5           1             5    8     1       0.4808335624E-02       5    8    1         0.2653163453E+00      0.2653184820E+00
          0                 6           1             5    8     1       0.1901512536E-02       5    8    1         0.1049233587E+00      0.1049242364E+00
          0                 7           1             5    8     1       0.7525858949E-03       5    8    1         0.4152581298E-01      0.4152654830E-01
          0                 8           1             5    8     1       0.2983685345E-03       5    8    1         0.1646245586E-01      0.1646329868E-01
          0                 9           1             5    8     1       0.1187133923E-03       5    8    1         0.6549347280E-02      0.6550539083E-02
          0                10           1             5    8     1       0.4758423964E-04       5    8    1         0.2624654307E-02      0.2626539717E-02

    ------------------------------------------------
       NWT REQUIRED           10 OUTER ITERATIONS 
       AND A TOTAL OF         14 INNER ITERATIONS.
    ------------------------------------------------

 NO OUTPUT CONTROL FOR STRESS PERIOD   47   TIME STEP   18
 
 SOLVING FOR HEAD 
                                                   Max.-Head-Change                         Max.-Flux-Residual
  Residual-Control   Outer-Iter.   Inner-Iter.     Column Row Layer    Maximum-Head-Change  Column Row Layer    Maximum-Flux-Residual          L2-NORM 
          0                 1           2             5    8     1       0.1750267082E+00       5    8    1         0.9558808789E+01      0.1121215303E+02
          0                 2           2             5    8     1       0.6829155138E-01       5    8    1         0.3780016905E+01      0.3841397751E+01
          0                 3           2             5    8     1       0.2784323710E-01       5    8    1         0.1534229977E+01      0.1541634074E+01
          0                 4           2             5    8     1       0.1100454702E-01       5    8    1         0.6072971192E+00      0.6073187507E+00
          0                 5           1             5    8     1       0.4350314485E-02       5    8    1         0.2400378176E+00      0.2400409428E+00
          0                 6           1             5    8     1       0.1720565191E-02       5    8    1         0.9493619352E-01      0.9493749940E-01
          0                 7           1             5    8     1       0.6811561957E-03       5    8    1         0.3758329777E-01      0.3758429445E-01
          0                 8           1             5    8     1       0.2702188118E-03       5    8    1         0.1490867052E-01      0.1490976439E-01
          0                 9           1             5    8     1       0.1076587200E-03       5    8    1         0.5939099762E-02      0.5940651681E-02
          0                10           1             5    8     1       0.4327555794E-04       5    8    1         0.2386751793E-02      0.2389170300E-02

    ------------------------------------------------
       NWT REQUIRED           10 OUTER ITERATIONS 
       AND A TOTAL OF         14 INNER ITERATIONS.
    ------------------------------------------------

 NO OUTPUT CONTROL FOR STRESS PERIOD   47   TIME STEP   19
 
 SOLVING FOR HEAD 
                                                   Max.-Head-Change                         Max.-Flux-Residual
  Residual-Control   Outer-Iter.   Inner-Iter.     Column Row Layer    Maximum-Head-Change  Column Row Layer    Maximum-Flux-Residual          L2-NORM 
          0                 1           2             5    8     1       0.1584669218E+00       5    8    1         0.8634123475E+01      0.1053163305E+02
          0                 2           2             5    8     1       0.6193455714E-01       5    8    1         0.3427210982E+01      0.3498139396E+01
          0                 3           2             5    8     1       0.2535576437E-01       5    8    1         0.1395619662E+01      0.1403786096E+01
          0                 4           2             5    8     1       0.1003324327E-01       5    8    1         0.5532022340E+00      0.5532255358E+00
          0                 5           1             5    8     1       0.3971180686E-02       5    8    1         0.2189184396E+00      0.2189214584E+00
          0                 6           1             5    8     1       0.1572667233E-02       5    8    1         0.8669643371E-01      0.8669773938E-01
          0                 7           1             5    8     1       0.6235282203E-03       5    8    1         0.3437207676E-01      0.3437318141E-01
          0                 8           1             5    8     1       0.2478144010E-03       5    8    1         0.1365988274E-01      0.1366119236E-01
          0                 9           1             5    8     1       0.9898959301E-04       5    8    1         0.5455680483E-02      0.5457600641E-02

    ------------------------------------------------
       NWT REQUIRED            9 OUTER ITERATIONS 
       AND A TOTAL OF         13 INNER ITERATIONS.
    ------------------------------------------------

 NO OUTPUT CONTROL FOR STRESS PERIOD   47   TIME STEP   20
 
 SOLVING FOR HEAD 
                                                   Max.-Head-Change                         Max.-Flux-Residual
  Residual-Control   Outer-Iter.   Inner-Iter.     Column Row Layer    Maximum-Head-Change  Column Row Layer    Maximum-Flux-Residual          L2-NORM 
          0                 1           2             5    8     1       0.1441512016E+00       5    8    1         0.7828796196E+01      0.9974083736E+01
          0                 2           2             5    8     1       0.5615814722E-01       5    8    1         0.3109660336E+01      0.3190545199E+01
          0                 3           2             5    8     1       0.2306578222E-01       5    8    1         0.1269377583E+01      0.1278370080E+01
          0                 4           2             5    8     1       0.9126966606E-02       5    8    1         0.5032647804E+00      0.5032903731E+00
          0                 5           1             5    8     1       0.3612579919E-02       5    8    1         0.1991577268E+00      0.1991607107E+00
          0                 6           1             5    8     1       0.1430828424E-02       5    8    1         0.7888034697E-01      0.7888168896E-01
          0                 7           1             5    8     1       0.5674711600E-03       5    8    1         0.3128295984E-01      0.3128419236E-01
          0                 8           1             5    8     1       0.2256974579E-03       5    8    1         0.1244103706E-01      0.1244257687E-01
          0                 9           1             5    8     1       0.9029487902E-04       5    8    1         0.4976476811E-02      0.4978799877E-02

    ------------------------------------------------
       NWT REQUIRED            9 OUTER ITERATIONS 
       AND A TOTAL OF         13 INNER ITERATIONS.
    ------------------------------------------------

 NO OUTPUT CONTROL FOR STRESS PERIOD   47   TIME STEP   21
 
 SOLVING FOR HEAD 
                                                   Max.-Head-Change                         Max.-Flux-Residual
  Residual-Control   Outer-Iter.   Inner-Iter.     Column Row Layer    Maximum-Head-Change  Column Row Layer    Maximum-Flux-Residual          L2-NORM 
          0                 1           2             5    8     1       0.1313542193E+00       5    8    1         0.7116253690E+01      0.9509309970E+01
          0                 2           2             5    8     1       0.5116059357E-01       5    8    1         0.2831389833E+01      0.2903515884E+01
          0                 3           2             5    8     1       0.2108069904E-01       5    8    1         0.1160391382E+01      0.1168751363E+01
          0                 4           2             5    8     1       0.8344146766E-02       5    8    1         0.4599588460E+00      0.4600843925E+00
          0                 5           1             5    8     1       0.3303608118E-02       5    8    1         0.1820965880E+00      0.1821217455E+00
          0                 6           1             5    8     1       0.1308891930E-02       5    8    1         0.7214789370E-01      0.7215716157E-01
          0                 7           1             5    8     1       0.5193888127E-03       5    8    1         0.2862822646E-01      0.2863306660E-01
          0                 8           1             5    8     1       0.2067747732E-03       5    8    1         0.1139611124E-01      0.1139982973E-01
          0                 9           1             5    8     1       0.8287999936E-04       5    8    1         0.4566865972E-02      0.4570916428E-02

    ------------------------------------------------
       NWT REQUIRED            9 OUTER ITERATIONS 
       AND A TOTAL OF         13 INNER ITERATIONS.
    ------------------------------------------------

 NO OUTPUT CONTROL FOR STRESS PERIOD   47   TIME STEP   22
 
 SOLVING FOR HEAD 
                                                   Max.-Head-Change                         Max.-Flux-Residual
  Residual-Control   Outer-Iter.   Inner-Iter.     Column Row Layer    Maximum-Head-Change  Column Row Layer    Maximum-Flux-Residual          L2-NORM 
          0                 1           2             5    8     1       0.1200516203E+00       5    8    1         0.6487521892E+01      0.9121173229E+01
          0                 2           2             5    8     1       0.4678504789E-01       5    8    1         0.2585559852E+01      0.2673899435E+01
          0                 3           2             5    8     1       0.1936231263E-01       5    8    1         0.1065229300E+01      0.1075785905E+01
          0                 4           2             5    8     1       0.7665670080E-02       5    8    1         0.4225815736E+00      0.4226964418E+00
          0                 5           1             5    8     1       0.3035172063E-02       5    8    1         0.1673166739E+00      0.1673297808E+00
          0                 6           1             5    8     1       0.1202703554E-02       5    8    1         0.6630124294E-01      0.6630603278E-01
          0                 7           1             5    8     1       0.4774221394E-03       5    8    1         0.2631747480E-01      0.2632060938E-01
          0                 8           1             5    8     1       0.1902236376E-03       5    8    1         0.1048475342E-01      0.1048780729E-01
          0                 9           1             5    8     1       0.7637934773E-04       5    8    1         0.4208913371E-02      0.4212960865E-02

    ------------------------------------------------
       NWT REQUIRED            9 OUTER ITERATIONS 
       AND A TOTAL OF         13 INNER ITERATIONS.
    ------------------------------------------------

 NO OUTPUT CONTROL FOR STRESS PERIOD   47   TIME STEP   23
 
 SOLVING FOR HEAD 
                                                   Max.-Head-Change                         Max.-Flux-Residual
  Residual-Control   Outer-Iter.   Inner-Iter.     Column Row Layer    Maximum-Head-Change  Column Row Layer    Maximum-Flux-Residual          L2-NORM 
          0                 1           2             5    8     1       0.1101033007E+00       5    8    1         0.5934984659E+01      0.8790892145E+01
          0                 2           2             5    8     1       0.1263828358E-01       5    8    1         0.7030969756E+00      0.9836077977E+00
          0                 3           2             4    8     1       0.1279808318E-02       4    8    1         0.7146821287E-01      0.1621873945E+00
          0                 4           1             5    7     1       0.1011910085E-03       5    7    1         0.5626221401E-02      0.7981933816E-02
          0                 5           1             5    7     1       0.1053667341E-04       5    7    1         0.5728760702E-03      0.7288318243E-03

    ------------------------------------------------
       NWT REQUIRED            5 OUTER ITERATIONS 
       AND A TOTAL OF          8 INNER ITERATIONS.
    ------------------------------------------------

 NO OUTPUT CONTROL FOR STRESS PERIOD   47   TIME STEP   24
 
 SOLVING FOR HEAD 
                                                   Max.-Head-Change                         Max.-Flux-Residual
  Residual-Control   Outer-Iter.   Inner-Iter.     Column Row Layer    Maximum-Head-Change  Column Row Layer    Maximum-Flux-Residual          L2-NORM 
          0                 1           2             5    8     1      -0.7942853701E-01       5    8    1        -0.4516516209E+01      0.7889771086E+01
          0                 2           2             5    8     1       0.7025919289E-02       5    8    1         0.4050384351E+00      0.7900830373E+00
          0                 3           2             4    8     1       0.1264128411E-02       4    8    1         0.7132109251E-01      0.1469913513E+00
          0                 4           1             5    7     1       0.9277029642E-04       5    7    1         0.5216195672E-02      0.7367603172E-02

    ------------------------------------------------
       NWT REQUIRED            4 OUTER ITERATIONS 
       AND A TOTAL OF          7 INNER ITERATIONS.
    ------------------------------------------------

 NO OUTPUT CONTROL FOR STRESS PERIOD   47   TIME STEP   25
 
 SOLVING FOR HEAD 
                                                   Max.-Head-Change                         Max.-Flux-Residual
  Residual-Control   Outer-Iter.   Inner-Iter.     Column Row Layer    Maximum-Head-Change  Column Row Layer    Maximum-Flux-Residual          L2-NORM 
          0                 1           2             5    8     1      -0.7239969099E-01       5    8    1        -0.4119589532E+01      0.7462231598E+01
          0                 2           2             4    8     1      -0.6402517352E-02       5    8    1         0.3657280551E+00      0.7533315544E+00
          0                 3           2             4    8     1       0.1248644131E-02       4    8    1         0.7038515522E-01      0.1464827059E+00
          0                 4           1             5    7     1       0.9111795970E-04       5    7    1         0.5128755913E-02      0.7318459552E-02

    ------------------------------------------------
       NWT REQUIRED            4 OUTER ITERATIONS 
       AND A TOTAL OF          7 INNER ITERATIONS.
    ------------------------------------------------

 NO OUTPUT CONTROL FOR STRESS PERIOD   47   TIME STEP   26
 
 SOLVING FOR HEAD 
                                                   Max.-Head-Change                         Max.-Flux-Residual
  Residual-Control   Outer-Iter.   Inner-Iter.     Column Row Layer    Maximum-Head-Change  Column Row Layer    Maximum-Flux-Residual          L2-NORM 
          0                 1           2             4    8     1       0.9514189827E-01       4    8    1         0.5175826294E+01      0.8250852937E+01
          0                 2           2             4    8     1       0.3746602691E-01       4    8    1         0.2032642056E+01      0.2129050339E+01
          0                 3           2             4    8     1       0.1595925153E-01       4    8    1         0.8646598707E+00      0.8742414501E+00
          0                 4           2             4    8     1       0.6433691313E-02       4    8    1         0.3491258813E+00      0.3491876707E+00
          0                 5           2             4    8     1       0.2594709537E-02       4    8    1         0.1407751305E+00      0.1407777574E+00
          0                 6           2             4    8     1       0.1047368963E-02       4    8    1         0.5682489683E-01      0.5682593251E-01
          0                 7           2             4    8     1       0.4235449270E-03       4    8    1         0.2297825987E-01      0.2297951908E-01
          0                 8           2             4    8     1       0.1719166287E-03       4    8    1         0.9325992183E-02      0.9327857856E-02
          0                 9           1             4    8     1       0.7031187267E-04       4    8    1         0.3813496406E-02      0.3816457945E-02

    ------------------------------------------------
       NWT REQUIRED            9 OUTER ITERATIONS 
       AND A TOTAL OF         17 INNER ITERATIONS.
    ------------------------------------------------

 NO OUTPUT CONTROL FOR STRESS PERIOD   47   TIME STEP   27
 
 SOLVING FOR HEAD 
                                                   Max.-Head-Change                         Max.-Flux-Residual
  Residual-Control   Outer-Iter.   Inner-Iter.     Column Row Layer    Maximum-Head-Change  Column Row Layer    Maximum-Flux-Residual          L2-NORM 
          0                 1           2             4    8     1       0.2324466509E+00       4    8    1         0.1261754636E+02      0.1401556646E+02
          0                 2           2             4    8     1       0.9279463174E-01       4    8    1         0.5035718718E+01      0.5072297562E+01
          0                 3           2             4    8     1       0.3824974962E-01       4    8    1         0.2074092308E+01      0.2078152169E+01
          0                 4           2             4    8     1       0.1541563493E-01       4    8    1         0.8364845047E+00      0.8365091219E+00
          0                 5           2             4    8     1       0.6214049128E-02       4    8    1         0.3371587899E+00      0.3371612213E+00
          0                 6           2             4    8     1       0.2505862749E-02       4    8    1         0.1359621567E+00      0.1359631274E+00
          0                 7           2             4    8     1       0.1011323971E-02       4    8    1         0.5487084487E-01      0.5487170415E-01
          0                 8           2             4    8     1       0.4088327538E-03       4    8    1         0.2218088844E-01      0.2218192430E-01
          0                 9           2             4    8     1       0.1658372430E-03       4    8    1         0.8996591967E-02      0.8998110578E-02
          0                10           1             4    8     1       0.6773868886E-04       4    8    1         0.3674151717E-02      0.3676561977E-02

    ------------------------------------------------
       NWT REQUIRED           10 OUTER ITERATIONS 
       AND A TOTAL OF         19 INNER ITERATIONS.
    ------------------------------------------------

 NO OUTPUT CONTROL FOR STRESS PERIOD   47   TIME STEP   28
 
 SOLVING FOR HEAD 
                                                   Max.-Head-Change                         Max.-Flux-Residual
  Residual-Control   Outer-Iter.   Inner-Iter.     Column Row Layer    Maximum-Head-Change  Column Row Layer    Maximum-Flux-Residual          L2-NORM 
          0                 1           2             5    7     1       0.2159321834E+00       5    7    1         0.1187286502E+02      0.1744270518E+02
          0                 2           2             4    8     1       0.8557436763E-01       5    7    1         0.4661208382E+01      0.6604329876E+01
          0                 3           2             4    8     1       0.3535239884E-01       4    8    1         0.1916024926E+01      0.2688084790E+01
          0                 4           2             4    8     1       0.1425485183E-01       4    8    1         0.7731943676E+00      0.1072891557E+01
          0                 5           2             4    8     1       0.5749040897E-02       4    8    1         0.3118033629E+00      0.4283132603E+00
          0                 6           2             4    8     1       0.2319628560E-02       4    8    1         0.1258082473E+00      0.1711311186E+00
          0                 7           2             4    8     1       0.9367832377E-03       4    8    1         0.5080691726E-01      0.6845553392E-01
          0                 8           2             4    8     1       0.3790376210E-03       4    8    1         0.2055651071E-01      0.2744511372E-01
          0                 9           2             4    8     1       0.1539630964E-03       4    8    1         0.8349208437E-02      0.1105213692E-01
          0                10           1             4    8     1       0.6303635001E-04       4    8    1         0.3417734596E-02      0.4490667887E-02

    ------------------------------------------------
       NWT REQUIRED           10 OUTER ITERATIONS 
       AND A TOTAL OF         19 INNER ITERATIONS.
    ------------------------------------------------

 NO OUTPUT CONTROL FOR STRESS PERIOD   47   TIME STEP   29
 
 SOLVING FOR HEAD 
                                                   Max.-Head-Change                         Max.-Flux-Residual
  Residual-Control   Outer-Iter.   Inner-Iter.     Column Row Layer    Maximum-Head-Change  Column Row Layer    Maximum-Flux-Residual          L2-NORM 
          0                 1           2             5    7     1       0.2058864838E+00       5    7    1         0.1129244557E+02      0.1647829482E+02
          0                 2           2             5    7     1       0.8038335127E-01       5    7    1         0.4445174986E+01      0.6207299230E+01
          0                 3           2             4    8     1       0.3271887118E-01       5    7    1         0.1794758043E+01      0.2525973513E+01
          0                 4           2             4    8     1       0.1319281957E-01       4    8    1         0.7156220499E+00      0.1007818516E+01
          0                 5           2             4    8     1       0.5312598946E-02       4    8    1         0.2882954170E+00      0.4019930402E+00
          0                 6           2             4    8     1       0.2142248545E-02       4    8    1         0.1162548913E+00      0.1605169666E+00
          0                 7           2             4    8     1       0.8647442817E-03       4    8    1         0.4692662977E-01      0.6417700447E-01
          0                 8           2             4    8     1       0.3498219957E-03       4    8    1         0.1898276764E-01      0.2572315956E-01
          0                 9           2             4    8     1       0.1421476148E-03       4    8    1         0.7712720653E-02      0.1036156291E-01
          0                10           1             4    8     1       0.5828532179E-04       4    8    1         0.3161797855E-02      0.4215967475E-02

    ------------------------------------------------
       NWT REQUIRED           10 OUTER ITERATIONS 
       AND A TOTAL OF         19 INNER ITERATIONS.
    ------------------------------------------------

 NO OUTPUT CONTROL FOR STRESS PERIOD   47   TIME STEP   30



 STREAM LISTING     PERIOD     47   STEP       30

 LAYER ROW COL. STREAM  RCH.  FLOW INTO     FLOW TO   FLOW OUT OF   OVRLND.     DIRECT     STREAM       STREAM     STREAM     STREAM   STREAMBED  STREAMBED
                SEG.NO.  NO.  STRM. RCH.    AQUIFER    STRM. RCH.    RUNOFF     PRECIP       ET          HEAD       DEPTH      WIDTH   CONDCTNC.   GRADIENT

   1    1    1     1     1    7.9710E+00  1.2901E-01   7.8420E+00  0.000E+00  0.000E+00  0.000E+00  1.09388E+03  8.328E-01  7.480E+00  3.366E-02  1.278E+00
   1    2    2     1     2    7.8420E+00  1.9811E-01   7.6439E+00  0.000E+00  0.000E+00  0.000E+00  1.08889E+03  8.271E-01  7.395E+00  5.177E-02  1.276E+00
   1    3    3     1     3    7.6439E+00  1.6733E-01   7.4765E+00  0.000E+00  0.000E+00  0.000E+00  1.08324E+03  8.206E-01  7.300E+00  4.380E-02  1.274E+00
   1    3    4     1     4    7.4765E+00  1.5276E-01   7.3238E+00  0.000E+00  0.000E+00  0.000E+00  1.07822E+03  8.148E-01  7.215E+00  4.004E-02  1.272E+00
   1    4    5     2     1    5.3238E+00  2.7067E-01   5.0531E+00  0.000E+00  0.000E+00  0.000E+00  1.07240E+03  4.701E-01  1.200E+01  7.800E-02  1.157E+00
   1    5    6     2     2    5.0531E+00  2.0742E-01   4.8457E+00  0.000E+00  0.000E+00  0.000E+00  1.06697E+03  4.570E-01  1.200E+01  6.000E-02  1.152E+00
   1    6    6     2     3    4.8457E+00  2.0672E-01   4.6390E+00  0.000E+00  0.000E+00  0.000E+00  1.06224E+03  4.454E-01  1.200E+01  6.000E-02  1.148E+00
   1    7    6     2     4    4.6390E+00  2.0602E-01   4.4330E+00  0.000E+00  0.000E+00  0.000E+00  1.05751E+03  4.337E-01  1.200E+01  6.000E-02  1.145E+00
   1    8    6     2     5    4.4330E+00  2.0530E-01   4.2276E+00  0.000E+00  0.000E+00  0.000E+00  1.05278E+03  4.218E-01  1.200E+01  6.000E-02  1.141E+00
   1    3    5     3     1    2.0000E+00  2.8252E-01   1.7175E+00  0.000E+00  0.000E+00  0.000E+00  1.07555E+03  1.909E+00  9.636E+00  7.227E-02  1.955E+00
   1    3    6     3     2    1.7175E+00  2.4905E-01   1.4684E+00  0.000E+00  0.000E+00  0.000E+00  1.07264E+03  1.727E+00  8.909E+00  6.682E-02  1.864E+00
   1    3    7     3     3    1.4684E+00  1.9718E-01   1.2712E+00  0.000E+00  0.000E+00  0.000E+00  1.06987E+03  1.555E+00  8.218E+00  5.547E-02  1.777E+00
   1    4    8     3     4    1.2712E+00  2.2567E-01   1.0456E+00  0.000E+00  0.000E+00  0.000E+00  1.06682E+03  1.364E+00  7.455E+00  6.709E-02  1.682E+00
   1    5    8     3     5    1.0456E+00  1.5790E-01   8.8768E-01  0.000E+00  0.000E+00  0.000E+00  1.06362E+03  1.164E+00  6.655E+00  4.991E-02  1.582E+00
   1    6    8     3     6    8.8768E-01  5.5980E-02   8.3170E-01  0.000E+00  0.000E+00  0.000E+00  1.06158E+03  1.036E+00  6.145E+00  1.844E-02  1.518E+00
   1    5   10     4     1    1.0000E+01  9.0919E-02   9.9091E+00  0.000E+00  0.000E+00  0.000E+00  1.07836E+03  6.368E-01  1.000E+01  2.500E-02  1.212E+00
   1    5    9     4     2    9.9091E+00  1.8158E-01   9.7275E+00  0.000E+00  0.000E+00  0.000E+00  1.07154E+03  6.315E-01  1.000E+01  5.000E-02  1.211E+00
   1    6    8     4     3    9.7275E+00  1.2689E-01   9.6006E+00  0.000E+00  0.000E+00  0.000E+00  1.06381E+03  6.256E-01  1.000E+01  3.500E-02  1.209E+00
   1    6    8     5     1    1.0432E+01  2.2686E-01   1.0205E+01  0.000E+00  0.000E+00  0.000E+00  1.05868E+03  6.790E-01  1.542E+01  6.166E-02  1.226E+00
   1    7    7     5     2    1.0205E+01  2.7894E-01   9.9265E+00  0.000E+00  0.000E+00  0.000E+00  1.05417E+03  6.732E-01  1.519E+01  7.594E-02  1.224E+00
   1    8    7     5     3    9.9265E+00  1.9221E-01   9.7343E+00  0.000E+00  0.000E+00  0.000E+00  1.04992E+03  6.676E-01  1.497E+01  5.241E-02  1.223E+00
   1    8    6     5     4    9.7343E+00  1.3577E-01   9.5985E+00  0.000E+00  0.000E+00  0.000E+00  1.04691E+03  6.637E-01  1.482E+01  3.706E-02  1.221E+00
   1    9    6     6     1    1.3249E+01  2.2980E-01   1.3020E+01  0.000E+00  0.000E+00  0.000E+00  1.04356E+03  8.299E-01  1.200E+01  6.000E-02  1.277E+00
   1   10    7     6     2    1.3020E+01  2.2927E-01   1.2790E+01  0.000E+00  0.000E+00  0.000E+00  1.03900E+03  8.212E-01  1.200E+01  6.000E-02  1.274E+00
   1   11    7     6     3    1.2790E+01  2.2875E-01   1.2561E+01  0.000E+00  0.000E+00  0.000E+00  1.03445E+03  8.124E-01  1.200E+01  6.000E-02  1.271E+00
   1   12    7     6     4    1.2561E+01  2.2822E-01   1.2333E+01  0.000E+00  0.000E+00  0.000E+00  1.02989E+03  8.036E-01  1.200E+01  6.000E-02  1.268E+00
   1   13    7     6     5    1.2333E+01  5.4740E-03   1.2328E+01  0.000E+00  0.000E+00  0.000E+00  1.02671E+03  7.991E-01  1.200E+01  2.400E-02  7.603E-02
   1   14    9     7     1    1.5000E+02  1.4033E+00   1.4860E+02  0.000E+00  0.000E+00  0.000E+00  1.03987E+03  2.288E+00  5.529E+01  5.593E-01  8.363E-01
   1   13    8     7     2    1.4860E+02  2.0341E+00   1.4656E+02  0.000E+00  0.000E+00  0.000E+00  1.03478E+03  2.278E+00  5.525E+01  6.147E-01  1.103E+00
   1   13    7     7     3    1.4656E+02  1.7908E+00   1.4477E+02  0.000E+00  0.000E+00  0.000E+00  1.02969E+03  2.268E+00  5.521E+01  5.583E-01  1.069E+00
   1   13    6     8     1    1.5710E+02  1.1577E+00   1.5594E+02  0.000E+00  0.000E+00  0.000E+00  1.02474E+03  2.862E+00  4.150E+01  4.229E-01  9.125E-01
   1   13    5     8     2    1.5594E+02  4.0179E-01   1.5554E+02  0.000E+00  0.000E+00  0.000E+00  1.01848E+03  2.857E+00  4.142E+01  4.221E-01  3.173E-01
   1   13    4     8     3    1.5554E+02 -1.6554E+00   1.5720E+02  0.000E+00  0.000E+00  0.000E+00  1.01224E+03  2.861E+00  4.149E+01  4.228E+00 -1.305E-01
   1   13    3     8     4    1.5720E+02 -3.2577E+00   1.6045E+02  0.000E+00  0.000E+00  0.000E+00  1.00600E+03  2.878E+00  4.173E+01  4.252E+00 -2.554E-01
   1   13    2     8     5    1.6045E+02 -2.4772E+00   1.6293E+02  0.000E+00  0.000E+00  0.000E+00  9.99772E+02  2.897E+00  4.201E+01  4.281E+00 -1.929E-01
   1   13    1     8     6    1.6293E+02 -1.9496E+00   1.6488E+02  0.000E+00  0.000E+00  0.000E+00  9.94787E+02  2.912E+00  4.223E+01  2.582E+00 -2.517E-01
   1    8    6     9     1    5.7687E-01  0.0000E+00   5.7687E-01  0.000E+00  0.000E+00  0.000E+00  1.07916E+03  4.085E-01  4.000E+00  0.000E+00  1.136E+00
   1    8    5     9     2    5.7687E-01  0.0000E+00   5.7687E-01  0.000E+00  0.000E+00  0.000E+00  1.07866E+03  4.085E-01  4.000E+00  0.000E+00  1.136E+00





UNSATURATED ZONE PACKAGE VOLUMETRIC BUDGET FOR  TIME STEP    30 STRESS PERIOD   47
  ------------------------------------------------------------------------------



     CUMULATIVE VOLUMES      L**3       RATES FOR THIS TIME STEP      L**3/T
     ------------------                 ------------------------

           IN:                                      IN:
           ---                                      ---
        INFILTRATION =  2451566621.4004          INFILTRATION =           4.9844

          OUT:                                     OUT:
          ----                                     ----
              UZF ET =  1984272915.5035                UZF ET =           4.2286
        UZF RECHARGE =    90124301.1488          UZF RECHARGE =          38.5054

            IN - OUT =   377169404.7481              IN - OUT =         -37.7496

          STORAGE:                                 STORAGE:
          --------                                 --------
      STORAGE CHANGE =   377169362.8499        STORAGE CHANGE =         -37.7496

 PERCENT DISCREPANCY IS DIFFERENCE BETWEEN IN-OUT MINUS CHANGE IN STORAGE
 DIVIDED BY THE AVERAGE OF IN AND OUT TIMES 100

 PERCENT DISCREPANCY =           0.00     PERCENT DISCREPANCY =           0.00






1
  VOLUMETRIC BUDGET FOR AGRICULTURAL FIELDS AT  END OF TIME STEP   30, STRESS PERIOD  47
  ------------------------------------------------------------------------------

     CUMULATIVE VOLUMES      L**3       RATES FOR THIS TIME STEP      L**3/T
     ------------------                 ------------------------

           IN:                                      IN:
           ---                                      ---
               AG WELLS  =  1211364864.0000                 AG WELLS  =       1.6241E-03
      DIVERSION SEGMENTS =   707465664.0000        DIVERSION SEGMENTS =           0.5769
           GW IRRIGATION =           0.0000             GW IRRIGATION =           0.0000
           SW IRRIGATION =           0.0000             SW IRRIGATION =           0.0000
        SYSTEM LOSSES GW =           0.0000          SYSTEM LOSSES GW =           0.0000
        SYSTEM LOSSES SW =           0.0000          SYSTEM LOSSES SW =           0.0000

                TOTAL IN =  1918830592.0000                  TOTAL IN =           0.5785

          OUT:                                     OUT:
          ----                                     ----
               AG WELLS  =           0.0000                 AG WELLS  =           0.0000
      DIVERSION SEGMENTS =           0.0000        DIVERSION SEGMENTS =           0.0000
           GW IRRIGATION =  1211364864.0000             GW IRRIGATION =       1.6241E-03
           SW IRRIGATION =   707479104.0000             SW IRRIGATION =           0.5769
        SYSTEM LOSSES GW =           0.0000          SYSTEM LOSSES GW =           0.0000
        SYSTEM LOSSES SW =           0.0000          SYSTEM LOSSES SW =           0.0000

               TOTAL OUT =  1918843904.0000                 TOTAL OUT =           0.5785

                IN - OUT =      -13312.0000                  IN - OUT =      -1.1504E-05

     PERCENT DISCREPANCY =          -0.00         PERCENT DISCREPANCY =          -0.00



1
  VOLUMETRIC BUDGET FOR ENTIRE MODEL AT END OF TIME STEP   30, STRESS PERIOD  47
  ------------------------------------------------------------------------------

     CUMULATIVE VOLUMES      L**3       RATES FOR THIS TIME STEP      L**3/T
     ------------------                 ------------------------

           IN:                                      IN:
           ---                                      ---
             STORAGE     =  1740299904.0000               STORAGE     =          10.6667
       CONSTANT HEAD     =           0.0000         CONSTANT HEAD     =           0.0000
     HEAD DEP BOUNDS     =    34958028.0000       HEAD DEP BOUNDS     =           0.2903
      STREAM LEAKAGE     =  1449885568.0000        STREAM LEAKAGE     =          11.8540
        UZF RECHARGE     =    90124336.0000          UZF RECHARGE     =          38.5054
               GW ET     =           0.0000                 GW ET     =           0.0000
     SURFACE LEAKAGE     =           0.0000       SURFACE LEAKAGE     =           0.0000
           AG WELLS      =           0.0000             AG WELLS      =           0.0000

                TOTAL IN =  3315267840.0000                  TOTAL IN =          61.3164

          OUT:                                     OUT:
          ----                                     ----
             STORAGE     =   875113408.0000               STORAGE     =          51.6860
       CONSTANT HEAD     =           0.0000         CONSTANT HEAD     =           0.0000
     HEAD DEP BOUNDS     =    34839480.0000       HEAD DEP BOUNDS     =           0.2866
      STREAM LEAKAGE     =  1193953536.0000        STREAM LEAKAGE     =           9.3398
        UZF RECHARGE     =           0.0000          UZF RECHARGE     =           0.0000
               GW ET     =           0.0000                 GW ET     =           0.0000
     SURFACE LEAKAGE     =           0.0000       SURFACE LEAKAGE     =           0.0000
           AG WELLS      =  1211364864.0000             AG WELLS      =       1.6241E-03

               TOTAL OUT =  3315271168.0000                 TOTAL OUT =          61.3140

                IN - OUT =       -3328.0000                  IN - OUT =       2.3880E-03

     PERCENT DISCREPANCY =          -0.00         PERCENT DISCREPANCY =           0.00






         TIME SUMMARY AT END OF TIME STEP   30 IN STRESS PERIOD   47
                    SECONDS     MINUTES      HOURS       DAYS        YEARS
                    -----------------------------------------------------------
   TIME STEP LENGTH  87667.      1461.1      24.352      1.0147     2.77799E-03
 STRESS PERIOD TIME 2.63000E+06  43833.      730.56      30.440     8.33397E-02
         TOTAL TIME 1.21065E+08 2.01775E+06  33629.      1401.2      3.8363    
1
1
                            STRESS PERIOD NO.   48, LENGTH =   2630000.    
                            -----------------------------------------------

                              NUMBER OF TIME STEPS =    30

                               MULTIPLIER FOR DELT =     1.000

                            INITIAL TIME STEP SIZE =   87666.66    

 REUSING NON-PARAMETER GHB CELLS FROM LAST STRESS PERIOD

      2 GHB CELLS

 REUSING STREAM SEGMENT DATA FROM LAST STRESS PERIOD



            AREAL INFILTRATION RATE
 READING ON UNIT   19 WITH FORMAT: (10F4.0)            

            1           2           3           4           5           6           7           8           9          10
 ........................................................................................................................
   1   1.2000E-09   0.000       0.000       0.000       0.000       0.000       0.000       0.000       0.000       0.000    
   2   2.1000E-09  2.0000E-09  8.0000E-10  8.5000E-09   0.000       0.000       0.000       0.000       0.000       0.000    
   3   5.0000E-10  1.1000E-09  8.8000E-09  5.5000E-09   0.000       0.000       0.000       0.000       0.000       0.000    
   4   8.5000E-09  1.1000E-09  1.1000E-09  1.1000E-09  2.0000E-09   0.000       0.000       0.000       0.000       0.000    
   5   8.5000E-09  1.1000E-09  1.1000E-09  1.1000E-09  1.1000E-09   0.000       0.000       0.000       0.000       0.000    
   6   8.5000E-09  5.2000E-09  2.1000E-09  1.1000E-09  1.5000E-09   0.000       0.000       0.000       0.000       0.000    
   7   8.5000E-09  5.2000E-09  2.1000E-09  1.2000E-09  2.0000E-09   0.000       0.000       0.000       0.000       0.000    
   8   5.0000E-10  5.2000E-09  2.1000E-09  1.2000E-09  5.0000E-09   0.000       0.000       0.000       0.000       0.000    
   9   5.0000E-10  5.2000E-09  2.1000E-09  1.2000E-09  5.0000E-09   0.000       0.000       0.000       0.000       0.000    
  10   5.0000E-10  5.2000E-09  2.1000E-09  1.2000E-09  5.8000E-09   0.000       0.000       0.000       0.000       0.000    
  11   1.0000E-10  1.1000E-09  1.1000E-09  1.2000E-09  5.0000E-09   0.000       0.000       0.000       0.000       0.000    
  12   1.1000E-09  1.1000E-09  1.1000E-09  1.1000E-09  2.0000E-09   0.000       0.000       0.000       0.000       0.000    
  13   1.1000E-09  2.2000E-09  2.2000E-09  2.1000E-09  1.0000E-09   0.000       0.000       0.000       0.000       0.000    
  14   2.0000E-10  5.5000E-09  5.5000E-09  5.2000E-09  1.0000E-09   0.000       0.000       0.000       0.000       0.000    
  15    0.000      8.8000E-09  8.8000E-09   0.000       0.000       0.000       0.000       0.000       0.000       0.000    

                  ET RATE =  5.000000E-10

 USING ET EXTINCTION DEPTH FROM PREVIOUS STRESS PERIOD. CURRENT PERIOD IS:      48

 USING EXTINCTION WATER CONTENT FROM PREVIOUS STRESS PERIOD. CURRENT PERIOD IS:      48

 USING AIR ENTRY PRESSURE FROM PREVIOUS STRESS PERIOD. CURRENT PERIOD IS:      48

 USING ROOT PRESSURE HEAD FROM PREVIOUS STRESS PERIOD. CURRENT PERIOD IS:      48

 USING ROOT ACTIVITY FROM PREVIOUS STRESS PERIOD. CURRENT PERIOD IS:      48

 PROCESSING AG STRESS PERIOD DATA

 READING AG STRESS PERIOD DATA

 READING IRRIGATION SEGMENT

 READING IRRIGATION WELL

 READING SUPPLEMENTAL WELL

 END PROCESSING AG STRESS PERIOD DATA OPTIONS
 
 SOLVING FOR HEAD 
                                                   Max.-Head-Change                         Max.-Flux-Residual
  Residual-Control   Outer-Iter.   Inner-Iter.     Column Row Layer    Maximum-Head-Change  Column Row Layer    Maximum-Flux-Residual          L2-NORM 
          0                 1           2             5    7     1       0.1857748118E+00       5    7    1         0.1015914755E+02      0.1526332358E+02
          0                 2           2             4    8     1       0.7394370476E-01       5    7    1         0.4055342588E+01      0.5736311919E+01
          0                 3           2             4    8     1       0.2978619566E-01       4    8    1         0.1616190498E+01      0.2271755469E+01
          0                 4           2             4    8     1       0.1199846454E-01       4    8    1         0.6511706210E+00      0.9061067357E+00
          0                 5           2             4    8     1       0.4833171926E-02       4    8    1         0.2623010812E+00      0.3614305297E+00
          0                 6           2             4    8     1       0.1946859759E-02       4    8    1         0.1056590637E+00      0.1442016867E+00
          0                 7           2             4    8     1       0.7842110415E-03       4    8    1         0.4256071668E-01      0.5754474950E-01
          0                 8           2             4    8     1       0.3158836539E-03       4    8    1         0.1714378744E-01      0.2296840371E-01
          0                 9           2             4    8     1       0.1272381493E-03       4    8    1         0.6905585706E-02      0.9169490458E-02
          0                10           1             4    8     1       0.5125114628E-04       4    8    1         0.2781571582E-02      0.3661408787E-02

    ------------------------------------------------
       NWT REQUIRED           10 OUTER ITERATIONS 
       AND A TOTAL OF         19 INNER ITERATIONS.
    ------------------------------------------------

 NO OUTPUT CONTROL FOR STRESS PERIOD   48   TIME STEP    1
 
 SOLVING FOR HEAD 
                                                   Max.-Head-Change                         Max.-Flux-Residual
  Residual-Control   Outer-Iter.   Inner-Iter.     Column Row Layer    Maximum-Head-Change  Column Row Layer    Maximum-Flux-Residual          L2-NORM 
          0                 1           2             4    8     1       0.1702314734E+00       4    8    1         0.9174926606E+01      0.1483402812E+02
          0                 2           2             4    8     1       0.6857137009E-01       4    8    1         0.3728191640E+01      0.5625631087E+01
          0                 3           2             4    8     1       0.2762101254E-01       4    8    1         0.1498619685E+01      0.2244364494E+01
          0                 4           2             4    8     1       0.1112590147E-01       4    8    1         0.6038385887E+00      0.9018058703E+00
          0                 5           2             4    8     1       0.4481556053E-02       4    8    1         0.2432234805E+00      0.3623313886E+00
          0                 6           2             4    8     1       0.1805179471E-02       4    8    1         0.9797161391E-01      0.1456020732E+00
          0                 7           2             4    8     1       0.7271263308E-03       4    8    1         0.3946314407E-01      0.5851660384E-01
          0                 8           2             4    8     1       0.2928851380E-03       4    8    1         0.1589574880E-01      0.2352006175E-01
          0                 9           2             4    8     1       0.1179730583E-03       4    8    1         0.6402775081E-02      0.9454576966E-02
          0                10           1             4    8     1       0.4751889913E-04       4    8    1         0.2579012985E-02      0.3800904169E-02

    ------------------------------------------------
       NWT REQUIRED           10 OUTER ITERATIONS 
       AND A TOTAL OF         19 INNER ITERATIONS.
    ------------------------------------------------

 NO OUTPUT CONTROL FOR STRESS PERIOD   48   TIME STEP    2
 
 SOLVING FOR HEAD 
                                                   Max.-Head-Change                         Max.-Flux-Residual
  Residual-Control   Outer-Iter.   Inner-Iter.     Column Row Layer    Maximum-Head-Change  Column Row Layer    Maximum-Flux-Residual          L2-NORM 
          0                 1           2             5    6     1       0.2236312989E+00       5    6    1         0.1216057149E+02      0.1798785983E+02
          0                 2           2             5    6     1       0.8948613538E-01       5    6    1         0.4887543207E+01      0.6935091391E+01
          0                 3           2             5    6     1       0.3581401612E-01       5    6    1         0.1953692195E+01      0.2773596187E+01
          0                 4           2             5    6     1       0.1433581267E-01       5    6    1         0.7820799524E+00      0.1115449691E+01
          0                 5           2             5    6     1       0.5739328024E-02       5    6    1         0.3130562109E+00      0.4485212979E+00
          0                 6           2             5    6     1       0.2298090273E-02       5    6    1         0.1253365320E+00      0.1803649368E+00
          0                 7           2             5    6     1       0.9203189876E-03       5    6    1         0.5018762464E-01      0.7253305249E-01
          0                 8           2             5    6     1       0.3686149621E-03       5    6    1         0.2009930672E-01      0.2917004702E-01
          0                 9           2             5    6     1       0.1476620494E-03       5    6    1         0.8050599224E-02      0.1173150225E-01
          0                10           1             5    6     1       0.5915946839E-04       5    6    1         0.3225049131E-02      0.4718288071E-02

    ------------------------------------------------
       NWT REQUIRED           10 OUTER ITERATIONS 
       AND A TOTAL OF         19 INNER ITERATIONS.
    ------------------------------------------------

 NO OUTPUT CONTROL FOR STRESS PERIOD   48   TIME STEP    3
 
 SOLVING FOR HEAD 
                                                   Max.-Head-Change                         Max.-Flux-Residual
  Residual-Control   Outer-Iter.   Inner-Iter.     Column Row Layer    Maximum-Head-Change  Column Row Layer    Maximum-Flux-Residual          L2-NORM 
          0                 1           2             5    6     1       0.2051914239E+00       5    6    1         0.1113848769E+02      0.1693903429E+02
          0                 2           2             5    6     1       0.8213287912E-01       5    6    1         0.4486472520E+01      0.6439387592E+01
          0                 3           2             5    6     1       0.3288096519E-01       5    6    1         0.1793127986E+01      0.2571813816E+01
          0                 4           2             5    6     1       0.1316556760E-01       5    6    1         0.7180303814E+00      0.1035226698E+01
          0                 5           2             5    6     1       0.5272295395E-02       5    6    1         0.2875033359E+00      0.4166253763E+00
          0                 6           2             5    6     1       0.2111654785E-02       5    6    1         0.1151375963E+00      0.1676849996E+00
          0                 7           2             5    6     1       0.8458769444E-03       5    6    1         0.4611613231E-01      0.6749312851E-01
          0                 8           2             5    6     1       0.3388836801E-03       5    6    1         0.1847350600E-01      0.2716709219E-01
          0                 9           2             5    6     1       0.1357849056E-03       5    6    1         0.7401241300E-02      0.1093562508E-01
          0                10           1             5    6     1       0.5441365036E-04       5    6    1         0.2965628870E-02      0.4402101296E-02

    ------------------------------------------------
       NWT REQUIRED           10 OUTER ITERATIONS 
       AND A TOTAL OF         19 INNER ITERATIONS.
    ------------------------------------------------

 NO OUTPUT CONTROL FOR STRESS PERIOD   48   TIME STEP    4
 
 SOLVING FOR HEAD 
                                                   Max.-Head-Change                         Max.-Flux-Residual
  Residual-Control   Outer-Iter.   Inner-Iter.     Column Row Layer    Maximum-Head-Change  Column Row Layer    Maximum-Flux-Residual          L2-NORM 
          0                 1           2             4    7     1       0.2640189768E+00       4    7    1         0.1412120381E+02      0.2078728349E+02
          0                 2           2             4    7     1       0.1073745080E+00       4    7    1         0.5793106574E+01      0.7793878036E+01
          0                 3           2             4    7     1       0.4359062355E-01       4    7    1         0.2351083317E+01      0.3157236895E+01
          0                 4           2             4    7     1       0.1769762830E-01       4    7    1         0.9544538720E+00      0.1284040203E+01
          0                 5           2             4    7     1       0.7187131291E-02       4    7    1         0.3875183260E+00      0.5223201957E+00
          0                 6           2             4    7     1       0.2919551768E-02       4    7    1         0.1573830176E+00      0.2125366252E+00
          0                 7           2             4    7     1       0.1186291235E-02       4    7    1         0.6393550666E-01      0.8650652556E-01
          0                 8           2             4    7     1       0.4821421248E-03       4    7    1         0.2598003706E-01      0.3521933806E-01
          0                 9           2             4    7     1       0.1960025501E-03       4    7    1         0.1055953600E-01      0.1434303535E-01
          0                10           1             4    7     1       0.7969769400E-04       4    7    1         0.4292908789E-02      0.5841157660E-02

    ------------------------------------------------
       NWT REQUIRED           10 OUTER ITERATIONS 
       AND A TOTAL OF         19 INNER ITERATIONS.
    ------------------------------------------------

 NO OUTPUT CONTROL FOR STRESS PERIOD   48   TIME STEP    5
 
 SOLVING FOR HEAD 
                                                   Max.-Head-Change                         Max.-Flux-Residual
  Residual-Control   Outer-Iter.   Inner-Iter.     Column Row Layer    Maximum-Head-Change  Column Row Layer    Maximum-Flux-Residual          L2-NORM 
          0                 1           2             4    7     1       0.2636798766E+00       4    7    1         0.1422252861E+02      0.1936759457E+02
          0                 2           2             4    7     1       0.1069507158E+00       4    7    1         0.5773779444E+01      0.7588207951E+01
          0                 3           2             4    7     1       0.4339263084E-01       4    7    1         0.2341349158E+01      0.3072995950E+01
          0                 4           2             4    7     1       0.1761041251E-01       4    7    1         0.9500179648E+00      0.1249535015E+01
          0                 5           2             4    7     1       0.7148881859E-02       4    7    1         0.3855774320E+00      0.5081949850E+00
          0                 6           2             4    7     1       0.2902791180E-02       4    7    1         0.1565316700E+00      0.2067400594E+00
          0                 7           2             4    7     1       0.1178954015E-02       4    7    1         0.6356257491E-01      0.8412323682E-01
          0                 8           2             4    7     1       0.4789342506E-03       4    7    1         0.2581682534E-01      0.3423689239E-01
          0                 9           2             4    7     1       0.1946021746E-03       4    7    1         0.1048820323E-01      0.1393640135E-01
          0                10           1             4    7     1       0.7908739366E-04       4    7    1         0.4261780538E-02      0.5673834604E-02

    ------------------------------------------------
       NWT REQUIRED           10 OUTER ITERATIONS 
       AND A TOTAL OF         19 INNER ITERATIONS.
    ------------------------------------------------

 NO OUTPUT CONTROL FOR STRESS PERIOD   48   TIME STEP    6
 
 SOLVING FOR HEAD 
                                                   Max.-Head-Change                         Max.-Flux-Residual
  Residual-Control   Outer-Iter.   Inner-Iter.     Column Row Layer    Maximum-Head-Change  Column Row Layer    Maximum-Flux-Residual          L2-NORM 
          0                 1           2             4    7     1       0.2450499349E+00       4    7    1         0.1324922798E+02      0.1730231071E+02
          0                 2           2             4    7     1       0.9854694621E-01       4    7    1         0.5362684441E+01      0.6438737104E+01
          0                 3           2             4    7     1       0.3950256781E-01       4    7    1         0.2150185186E+01      0.2557708920E+01
          0                 4           2             4    7     1       0.1585235964E-01       4    7    1         0.8629636504E+00      0.1021925078E+01
          0                 5           2             4    7     1       0.6361450404E-02       4    7    1         0.3463044035E+00      0.4083095873E+00
          0                 6           2             4    7     1       0.2552791313E-02       4    7    1         0.1389694036E+00      0.1631570736E+00
          0                 7           2             4    7     1       0.1024405035E-02       4    7    1         0.5576710743E-01      0.6520223938E-01
          0                 8           2             4    7     1       0.4110790798E-03       4    7    1         0.2237865964E-01      0.2605906325E-01
          0                 9           1             4    7     1       0.1649591305E-03       4    7    1         0.8980227471E-02      0.1041583752E-01
          0                10           1             4    7     1       0.6619493147E-04       4    7    1         0.3603611032E-02      0.4163590165E-02

    ------------------------------------------------
       NWT REQUIRED           10 OUTER ITERATIONS 
       AND A TOTAL OF         18 INNER ITERATIONS.
    ------------------------------------------------

 NO OUTPUT CONTROL FOR STRESS PERIOD   48   TIME STEP    7
 
 SOLVING FOR HEAD 
                                                   Max.-Head-Change                         Max.-Flux-Residual
  Residual-Control   Outer-Iter.   Inner-Iter.     Column Row Layer    Maximum-Head-Change  Column Row Layer    Maximum-Flux-Residual          L2-NORM 
          0                 1           2             4    7     1       0.2246101289E+00       4    7    1         0.1223115450E+02      0.1596263708E+02
          0                 2           2             4    7     1       0.9011684235E-01       4    7    1         0.4906650940E+01      0.5873466736E+01
          0                 3           2             4    7     1       0.3615558548E-01       4    7    1         0.1968544978E+01      0.2328942901E+01
          0                 4           2             4    7     1       0.1450585359E-01       4    7    1         0.7897695966E+00      0.9296962216E+00
          0                 5           2             4    7     1       0.5819808976E-02       4    7    1         0.3168679872E+00      0.3712218092E+00
          0                 6           2             4    7     1       0.2334918097E-02       4    7    1         0.1271280867E+00      0.1482420710E+00
          0                 7           2             4    7     1       0.9367679798E-03       4    7    1         0.5100405923E-01      0.5920558660E-01
          0                 8           2             4    7     1       0.3758286737E-03       4    7    1         0.2046278732E-01      0.2364849724E-01
          0                 9           1             4    7     1       0.1507805415E-03       4    7    1         0.8209607714E-02      0.9446994408E-02
          0                10           1             4    7     1       0.6049204702E-04       4    7    1         0.3293650432E-02      0.3774260838E-02

    ------------------------------------------------
       NWT REQUIRED           10 OUTER ITERATIONS 
       AND A TOTAL OF         18 INNER ITERATIONS.
    ------------------------------------------------

 NO OUTPUT CONTROL FOR STRESS PERIOD   48   TIME STEP    8
 
 SOLVING FOR HEAD 
                                                   Max.-Head-Change                         Max.-Flux-Residual
  Residual-Control   Outer-Iter.   Inner-Iter.     Column Row Layer    Maximum-Head-Change  Column Row Layer    Maximum-Flux-Residual          L2-NORM 
          0                 1           2             4    7     1       0.2061012725E+00       4    7    1         0.1120183312E+02      0.1473400073E+02
          0                 2           2             4    7     1       0.8268812520E-01       4    7    1         0.4504460676E+01      0.5373856287E+01
          0                 3           2             4    7     1       0.3311570896E-01       4    7    1         0.1805888141E+01      0.2126139065E+01
          0                 4           2             4    7     1       0.1325868439E-01       4    7    1         0.7230720584E+00      0.8471541824E+00
          0                 5           2             4    7     1       0.5308411303E-02       4    7    1         0.2895033436E+00      0.3376004250E+00
          0                 6           2             4    7     1       0.2125329567E-02       4    7    1         0.1159087756E+00      0.1345533828E+00
          0                 7           2             4    7     1       0.8509137460E-03       4    7    1         0.4640644690E-01      0.5363367688E-01
          0                 8           2             4    7     1       0.3406766275E-03       4    7    1         0.1857963972E-01      0.2138106032E-01
          0                 9           1             4    7     1       0.1363944514E-03       4    7    1         0.7438645202E-02      0.8524504005E-02
          0                10           1             4    7     1       0.5460704960E-04       4    7    1         0.2978159326E-02      0.3399038875E-02

    ------------------------------------------------
       NWT REQUIRED           10 OUTER ITERATIONS 
       AND A TOTAL OF         18 INNER ITERATIONS.
    ------------------------------------------------

 NO OUTPUT CONTROL FOR STRESS PERIOD   48   TIME STEP    9
 
 SOLVING FOR HEAD 
                                                   Max.-Head-Change                         Max.-Flux-Residual
  Residual-Control   Outer-Iter.   Inner-Iter.     Column Row Layer    Maximum-Head-Change  Column Row Layer    Maximum-Flux-Residual          L2-NORM 
          0                 1           2             4    7     1       0.1890562605E+00       4    7    1         0.1027340203E+02      0.1368879454E+02
          0                 2           2             4    7     1       0.7568957372E-01       4    7    1         0.4132052857E+01      0.4920183271E+01
          0                 3           2             4    7     1       0.3030241160E-01       4    7    1         0.1652402627E+01      0.1940173533E+01
          0                 4           2             4    7     1       0.1213156770E-01       4    7    1         0.6616453118E+00      0.7731263620E+00
          0                 5           2             4    7     1       0.4856846838E-02       4    7    1         0.2648890754E+00      0.3080972902E+00
          0                 6           2             4    7     1       0.1944417352E-02       4    7    1         0.1060476527E+00      0.1227959165E+00
          0                 7           2             4    7     1       0.7784345874E-03       4    7    1         0.4245572406E-01      0.4894739317E-01
          0                 8           2             4    7     1       0.3116393772E-03       4    7    1         0.1699685714E-01      0.1951297809E-01
          0                 9           1             4    7     1       0.1247613646E-03       4    7    1         0.6804536984E-02      0.7779741601E-02
          0                10           1             4    7     1       0.4994655933E-04       4    7    1         0.2724119107E-02      0.3102082658E-02

    ------------------------------------------------
       NWT REQUIRED           10 OUTER ITERATIONS 
       AND A TOTAL OF         18 INNER ITERATIONS.
    ------------------------------------------------

 NO OUTPUT CONTROL FOR STRESS PERIOD   48   TIME STEP   10
 
 SOLVING FOR HEAD 
                                                   Max.-Head-Change                         Max.-Flux-Residual
  Residual-Control   Outer-Iter.   Inner-Iter.     Column Row Layer    Maximum-Head-Change  Column Row Layer    Maximum-Flux-Residual          L2-NORM 
          0                 1           2             4    6     1       0.2039077844E+00       4    6    1         0.1096507451E+02      0.1506214539E+02
          0                 2           2             4    6     1       0.8291697567E-01       4    6    1         0.4468119391E+01      0.5905842110E+01
          0                 3           2             4    6     1       0.3371068603E-01       4    6    1         0.1816000553E+01      0.2399534657E+01
          0                 4           2             4    6     1       0.1370600275E-01       4    6    1         0.7383394448E+00      0.9772692906E+00
          0                 5           2             4    6     1       0.5572891097E-02       4    6    1         0.3001942130E+00      0.3980505595E+00
          0                 6           2             4    6     1       0.2266087090E-02       4    6    1         0.1220612276E+00      0.1621304229E+00
          0                 7           2             4    6     1       0.9215059848E-03       4    6    1         0.4963395781E-01      0.6603806901E-01
          0                 8           2             4    6     1       0.3747524271E-03       4    6    1         0.2018391932E-01      0.2689844937E-01
          0                 9           2             4    6     1       0.1524104360E-03       4    6    1         0.8208364783E-02      0.1095627732E-01
          0                10           1             4    6     1       0.6198807735E-04       4    6    1         0.3338347974E-02      0.4462738962E-02

    ------------------------------------------------
       NWT REQUIRED           10 OUTER ITERATIONS 
       AND A TOTAL OF         19 INNER ITERATIONS.
    ------------------------------------------------

 NO OUTPUT CONTROL FOR STRESS PERIOD   48   TIME STEP   11
 
 SOLVING FOR HEAD 
                                                   Max.-Head-Change                         Max.-Flux-Residual
  Residual-Control   Outer-Iter.   Inner-Iter.     Column Row Layer    Maximum-Head-Change  Column Row Layer    Maximum-Flux-Residual          L2-NORM 
          0                 1           2             4    6     1       0.2603136194E+00       4    6    1         0.1417768029E+02      0.1588054786E+02
          0                 2           2             4    6     1       0.1044008422E+00       4    6    1         0.5686195704E+01      0.5716724034E+01
          0                 3           2             4    6     1       0.4181623127E-01       4    6    1         0.2280270097E+01      0.2280649566E+01
          0                 4           2             4    6     1       0.1674706276E-01       4    6    1         0.9131011302E+00      0.9131200883E+00
          0                 5           2             4    6     1       0.6707002352E-02       4    6    1         0.3656987052E+00      0.3657043003E+00
          0                 6           2             4    6     1       0.2686073878E-02       4    6    1         0.1464571648E+00      0.1464595877E+00
          0                 7           2             4    6     1       0.1075740270E-02       4    6    1         0.5865439225E-01      0.5865528796E-01
          0                 8           2             4    6     1       0.4308210360E-03       4    6    1         0.2349037528E-01      0.2349187649E-01
          0                 9           2             4    6     1       0.1725386420E-03       4    6    1         0.9407613094E-02      0.9410242581E-02
          0                10           1             4    6     1       0.6909965034E-04       4    6    1         0.3767635901E-02      0.3767746864E-02

    ------------------------------------------------
       NWT REQUIRED           10 OUTER ITERATIONS 
       AND A TOTAL OF         19 INNER ITERATIONS.
    ------------------------------------------------

 NO OUTPUT CONTROL FOR STRESS PERIOD   48   TIME STEP   12
 
 SOLVING FOR HEAD 
                                                   Max.-Head-Change                         Max.-Flux-Residual
  Residual-Control   Outer-Iter.   Inner-Iter.     Column Row Layer    Maximum-Head-Change  Column Row Layer    Maximum-Flux-Residual          L2-NORM 
          0                 1           2             4    6     1       0.2371281002E+00       4    6    1         0.1297491025E+02      0.1399707918E+02
          0                 2           2             4    6     1       0.9483535603E-01       4    6    1         0.5169880855E+01      0.5196398165E+01
          0                 3           2             4    6     1       0.3795073836E-01       4    6    1         0.2070829053E+01      0.2071133400E+01
          0                 4           2             4    6     1       0.1518695147E-01       4    6    1         0.8285383694E+00      0.8285445267E+00
          0                 5           2             4    6     1       0.6077438693E-02       4    6    1         0.3315732990E+00      0.3315741521E+00
          0                 6           2             4    6     1       0.2432038042E-02       4    6    1         0.1326864305E+00      0.1326868189E+00
          0                 7           2             4    6     1       0.9732405299E-03       4    6    1         0.5309785865E-01      0.5309800972E-01
          0                 8           2             4    6     1       0.3894664277E-03       4    6    1         0.2124842755E-01      0.2124848828E-01
          0                 9           2             4    6     1       0.1558546898E-03       4    6    1         0.8503088244E-02      0.8503112511E-02
          0                10           1             4    6     1       0.6236913578E-04       4    6    1         0.3402722619E-02      0.3402732367E-02

    ------------------------------------------------
       NWT REQUIRED           10 OUTER ITERATIONS 
       AND A TOTAL OF         19 INNER ITERATIONS.
    ------------------------------------------------

 NO OUTPUT CONTROL FOR STRESS PERIOD   48   TIME STEP   13
 
 SOLVING FOR HEAD 
                                                   Max.-Head-Change                         Max.-Flux-Residual
  Residual-Control   Outer-Iter.   Inner-Iter.     Column Row Layer    Maximum-Head-Change  Column Row Layer    Maximum-Flux-Residual          L2-NORM 
          0                 1           2             4    6     1       0.2158828191E+00       4    6    1         0.1180332432E+02      0.1274189048E+02
          0                 2           2             4    6     1       0.8638691891E-01       4    6    1         0.4711000038E+01      0.4735385943E+01
          0                 3           2             4    6     1       0.3456835886E-01       4    6    1         0.1886214387E+01      0.1886502310E+01
          0                 4           2             4    6     1       0.1383280318E-01       4    6    1         0.7546925952E+00      0.7546974828E+00
          0                 5           2             4    6     1       0.5535309228E-02       4    6    1         0.3020054197E+00      0.3020062220E+00
          0                 6           2             4    6     1       0.2214999747E-02       4    6    1         0.1208493494E+00      0.1208497016E+00
          0                 7           2             4    6     1       0.8863505441E-03       4    6    1         0.4835893358E-01      0.4835907138E-01
          0                 8           2             4    6     1       0.3546805447E-03       4    6    1         0.1935122790E-01      0.1935128324E-01
          0                 9           2             4    6     1       0.1419283731E-03       4    6    1         0.7743555627E-02      0.7743577753E-02
          0                10           1             4    6     1       0.5679382035E-04       4    6    1         0.3098648347E-02      0.3098657197E-02

    ------------------------------------------------
       NWT REQUIRED           10 OUTER ITERATIONS 
       AND A TOTAL OF         19 INNER ITERATIONS.
    ------------------------------------------------

 NO OUTPUT CONTROL FOR STRESS PERIOD   48   TIME STEP   14
 
 SOLVING FOR HEAD 
                                                   Max.-Head-Change                         Max.-Flux-Residual
  Residual-Control   Outer-Iter.   Inner-Iter.     Column Row Layer    Maximum-Head-Change  Column Row Layer    Maximum-Flux-Residual          L2-NORM 
          0                 1           2             4    6     1       0.1968449180E+00       4    6    1         0.1074812189E+02      0.1164196673E+02
          0                 2           2             4    6     1       0.7876578566E-01       4    6    1         0.4296993843E+01      0.4320217194E+01
          0                 3           2             4    6     1       0.3151751785E-01       4    6    1         0.1719696407E+01      0.1719978593E+01
          0                 4           2             4    6     1       0.1261150704E-01       4    6    1         0.6880877946E+00      0.6880916361E+00
          0                 5           2             4    6     1       0.5046406131E-02       4    6    1         0.2753389869E+00      0.2753397429E+00
          0                 6           2             4    6     1       0.2019284474E-02       4    6    1         0.1101745876E+00      0.1101749073E+00
          0                 7           2             4    6     1       0.8080027712E-03       4    6    1         0.4408564802E-01      0.4408577384E-01
          0                 8           2             4    6     1       0.3233167540E-03       4    6    1         0.1764056797E-01      0.1764061845E-01
          0                 9           2             4    6     1       0.1293729783E-03       4    6    1         0.7058752626E-02      0.7058772838E-02
          0                10           1             4    6     1       0.5176770838E-04       4    6    1         0.2824511446E-02      0.2824519564E-02

    ------------------------------------------------
       NWT REQUIRED           10 OUTER ITERATIONS 
       AND A TOTAL OF         19 INNER ITERATIONS.
    ------------------------------------------------

 NO OUTPUT CONTROL FOR STRESS PERIOD   48   TIME STEP   15
 
 SOLVING FOR HEAD 
                                                   Max.-Head-Change                         Max.-Flux-Residual
  Residual-Control   Outer-Iter.   Inner-Iter.     Column Row Layer    Maximum-Head-Change  Column Row Layer    Maximum-Flux-Residual          L2-NORM 
          0                 1           2             4    6     1       0.1797332943E+00       4    6    1         0.9800075204E+01      0.1068251350E+02
          0                 2           2             4    6     1       0.7191486422E-01       4    6    1         0.3924827812E+01      0.3947534649E+01
          0                 3           2             4    6     1       0.2877469240E-01       4    6    1         0.1569995840E+01      0.1570279581E+01
          0                 4           2             4    6     1       0.1151340665E-01       4    6    1         0.6282052573E+00      0.6282082121E+00
          0                 5           2             4    6     1       0.4606778532E-02       4    6    1         0.2513618253E+00      0.2513625418E+00
          0                 6           2             4    6     1       0.1843278537E-02       4    6    1         0.1005754992E+00      0.1005757899E+00
          0                 7           2             4    6     1       0.7375384297E-03       4    6    1         0.4024262160E-01      0.4024273677E-01
          0                 8           2             4    6     1       0.2951062212E-03       4    6    1         0.1610200615E-01      0.1610205230E-01
          0                 9           2             4    6     1       0.1180788417E-03       4    6    1         0.6442786574E-02      0.6442805039E-02
          0                10           1             4    6     1       0.4724608301E-04       4    6    1         0.2577908412E-02      0.2577915807E-02

    ------------------------------------------------
       NWT REQUIRED           10 OUTER ITERATIONS 
       AND A TOTAL OF         19 INNER ITERATIONS.
    ------------------------------------------------

 NO OUTPUT CONTROL FOR STRESS PERIOD   48   TIME STEP   16
 
 SOLVING FOR HEAD 
                                                   Max.-Head-Change                         Max.-Flux-Residual
  Residual-Control   Outer-Iter.   Inner-Iter.     Column Row Layer    Maximum-Head-Change  Column Row Layer    Maximum-Flux-Residual          L2-NORM 
          0                 1           2             4    6     1       0.1643416121E+00       4    6    1         0.8947875645E+01      0.9848259703E+01
          0                 2           2             4    6     1       0.6575341408E-01       4    6    1         0.3590001545E+01      0.3613492416E+01
          0                 3           2             4    6     1       0.2630802988E-01       4    6    1         0.1435396496E+01      0.1435694771E+01
          0                 4           2             4    6     1       0.1058861193E-01       4    6    1         0.5768858829E+00      0.5768884524E+00
          0                 5           2             4    6     1       0.4245094047E-02       4    6    1         0.2312631822E+00      0.2312640425E+00
          0                 6           2             4    6     1       0.1701906825E-02       4    6    1         0.9271726684E-01      0.9271772853E-01
          0                 7           2             4    6     1       0.6823140503E-03       4    6    1         0.3717135994E-01      0.3717144998E-01
          0                 8           2             4    6     1       0.2735475806E-03       4    6    1         0.1490243515E-01      0.1490247046E-01
          0                 9           1             4    6     1       0.1096683863E-03       4    6    1         0.5974558522E-02      0.5974572753E-02
          0                10           1             4    6     1       0.4396732394E-04       4    6    1         0.2395269694E-02      0.2395275545E-02

    ------------------------------------------------
       NWT REQUIRED           10 OUTER ITERATIONS 
       AND A TOTAL OF         18 INNER ITERATIONS.
    ------------------------------------------------

 NO OUTPUT CONTROL FOR STRESS PERIOD   48   TIME STEP   17
 
 SOLVING FOR HEAD 
                                                   Max.-Head-Change                         Max.-Flux-Residual
  Residual-Control   Outer-Iter.   Inner-Iter.     Column Row Layer    Maximum-Head-Change  Column Row Layer    Maximum-Flux-Residual          L2-NORM 
          0                 1           2             4    6     1       0.1508309884E+00       4    6    1         0.8185206071E+01      0.9127904144E+01
          0                 2           2             4    6     1       0.6046538942E-01       4    6    1         0.3297527140E+01      0.3322181142E+01
          0                 3           2             4    6     1       0.2423952562E-01       4    6    1         0.1320366990E+01      0.1320685617E+01
          0                 4           2             4    6     1       0.9717231510E-02       4    6    1         0.5294154268E+00      0.5294171756E+00
          0                 5           2             4    6     1       0.3895483600E-02       4    6    1         0.2122304345E+00      0.2122309725E+00
          0                 6           2             4    6     1       0.1561638022E-02       4    6    1         0.8508014671E-01      0.8508034861E-01
          0                 7           2             4    6     1       0.6260361819E-03       4    6    1         0.3410729108E-01      0.3410737203E-01
          0                 8           2             4    6     1       0.2509680982E-03       4    6    1         0.1367308248E-01      0.1367311498E-01
          0                 9           1             4    6     1       0.1006091812E-03       4    6    1         0.5481324903E-02      0.5481338022E-02
          0                10           1             4    6     1       0.4033264623E-04       4    6    1         0.2197377462E-02      0.2197383467E-02

    ------------------------------------------------
       NWT REQUIRED           10 OUTER ITERATIONS 
       AND A TOTAL OF         18 INNER ITERATIONS.
    ------------------------------------------------

 NO OUTPUT CONTROL FOR STRESS PERIOD   48   TIME STEP   18
 
 SOLVING FOR HEAD 
                                                   Max.-Head-Change                         Max.-Flux-Residual
  Residual-Control   Outer-Iter.   Inner-Iter.     Column Row Layer    Maximum-Head-Change  Column Row Layer    Maximum-Flux-Residual          L2-NORM 
          0                 1           2             4    5     1       0.4530905735E-01       4    5    1         0.2438552187E+01      0.4069476635E+01
          0                 2           2             4    5     1      -0.4383139613E-02       4    5    1        -0.2438576097E+00      0.3999276173E+00
          0                 3           2             4    5     1       0.2992684919E-03       4    5    1         0.1708040145E-01      0.2791945159E-01
          0                 4           1             4    5     1      -0.1188396492E-04       4    5    1        -0.6979400159E-03      0.1163968064E-02

    ------------------------------------------------
       NWT REQUIRED            4 OUTER ITERATIONS 
       AND A TOTAL OF          7 INNER ITERATIONS.
    ------------------------------------------------

 NO OUTPUT CONTROL FOR STRESS PERIOD   48   TIME STEP   19
 
 SOLVING FOR HEAD 
                                                   Max.-Head-Change                         Max.-Flux-Residual
  Residual-Control   Outer-Iter.   Inner-Iter.     Column Row Layer    Maximum-Head-Change  Column Row Layer    Maximum-Flux-Residual          L2-NORM 
          0                 1           2             4    6     1      -0.4595227951E-01       4    6    1        -0.2544396578E+01      0.4642984840E+01
          0                 2           2             4    6     1       0.4476521164E-02       4    6    1         0.2539152088E+00      0.4614431446E+00
          0                 3           2             4    6     1      -0.3043165949E-03       4    6    1        -0.1776751827E-01      0.3229328373E-01
          0                 4           1             4    6     1       0.1212606192E-04       4    6    1         0.7271373879E-03      0.1320713965E-02

    ------------------------------------------------
       NWT REQUIRED            4 OUTER ITERATIONS 
       AND A TOTAL OF          7 INNER ITERATIONS.
    ------------------------------------------------

 NO OUTPUT CONTROL FOR STRESS PERIOD   48   TIME STEP   20
 
 SOLVING FOR HEAD 
                                                   Max.-Head-Change                         Max.-Flux-Residual
  Residual-Control   Outer-Iter.   Inner-Iter.     Column Row Layer    Maximum-Head-Change  Column Row Layer    Maximum-Flux-Residual          L2-NORM 
          0                 1           2             4    6     1      -0.4311110445E-01       4    6    1        -0.2387229434E+01      0.4430658876E+01
          0                 2           2             4    6     1       0.4207385332E-02       4    6    1         0.2387058745E+00      0.4407206460E+00
          0                 3           2             4    6     1      -0.2860461571E-03       4    6    1        -0.1670358175E-01      0.3084402843E-01
          0                 4           1             4    6     1       0.1139720082E-04       4    6    1         0.6835735912E-03      0.1261458505E-02

    ------------------------------------------------
       NWT REQUIRED            4 OUTER ITERATIONS 
       AND A TOTAL OF          7 INNER ITERATIONS.
    ------------------------------------------------

 NO OUTPUT CONTROL FOR STRESS PERIOD   48   TIME STEP   21
 
 SOLVING FOR HEAD 
                                                   Max.-Head-Change                         Max.-Flux-Residual
  Residual-Control   Outer-Iter.   Inner-Iter.     Column Row Layer    Maximum-Head-Change  Column Row Layer    Maximum-Flux-Residual          L2-NORM 
          0                 1           2             4    6     1      -0.4043518384E-01       4    6    1        -0.2239225611E+01      0.4232475696E+01
          0                 2           2             4    6     1       0.3945630346E-02       4    6    1         0.2239075246E+00      0.4214723378E+00
          0                 3           2             4    6     1      -0.2682723480E-03       4    6    1        -0.1566833809E-01      0.2949772727E-01
          0                 4           1             4    6     1       0.1068829744E-04       4    6    1         0.6411884733E-03      0.1206404220E-02

    ------------------------------------------------
       NWT REQUIRED            4 OUTER ITERATIONS 
       AND A TOTAL OF          7 INNER ITERATIONS.
    ------------------------------------------------

 NO OUTPUT CONTROL FOR STRESS PERIOD   48   TIME STEP   22
 
 SOLVING FOR HEAD 
                                                   Max.-Head-Change                         Max.-Flux-Residual
  Residual-Control   Outer-Iter.   Inner-Iter.     Column Row Layer    Maximum-Head-Change  Column Row Layer    Maximum-Flux-Residual          L2-NORM 
          0                 1           2             4    6     1      -0.3792181832E-01       4    6    1        -0.2100267939E+01      0.4048356485E+01
          0                 2           2             4    6     1       0.3699800243E-02       4    6    1         0.2100135440E+00      0.3982348421E+00
          0                 3           2             4    6     1      -0.2515762707E-03       4    6    1        -0.1469631627E-01      0.2787046687E-01
          0                 4           1             4    6     1       0.1002250279E-04       4    6    1         0.6013949778E-03      0.1139864454E-02

    ------------------------------------------------
       NWT REQUIRED            4 OUTER ITERATIONS 
       AND A TOTAL OF          7 INNER ITERATIONS.
    ------------------------------------------------

 NO OUTPUT CONTROL FOR STRESS PERIOD   48   TIME STEP   23
 
 SOLVING FOR HEAD 
                                                   Max.-Head-Change                         Max.-Flux-Residual
  Residual-Control   Outer-Iter.   Inner-Iter.     Column Row Layer    Maximum-Head-Change  Column Row Layer    Maximum-Flux-Residual          L2-NORM 
          0                 1           2             4    6     1      -0.3556028664E-01       4    6    1        -0.1969754325E+01      0.3876259827E+01
          0                 2           2             4    6     1       0.3468886211E-02       4    6    1         0.1969637539E+00      0.3820752500E+00
          0                 3           2             4    6     1      -0.2358911637E-03       4    6    1        -0.1378333234E-01      0.2670058980E-01
          0                 4           1             4    6     1       0.9397121142E-05       4    6    1         0.5640206700E-03      0.1091959968E-02

    ------------------------------------------------
       NWT REQUIRED            4 OUTER ITERATIONS 
       AND A TOTAL OF          7 INNER ITERATIONS.
    ------------------------------------------------

 NO OUTPUT CONTROL FOR STRESS PERIOD   48   TIME STEP   24
 
 SOLVING FOR HEAD 
                                                   Max.-Head-Change                         Max.-Flux-Residual
  Residual-Control   Outer-Iter.   Inner-Iter.     Column Row Layer    Maximum-Head-Change  Column Row Layer    Maximum-Flux-Residual          L2-NORM 
          0                 1           2             4    6     1      -0.3334036396E-01       4    6    1        -0.1847112492E+01      0.3715377922E+01
          0                 2           2             4    6     1       0.3251884702E-02       4    6    1         0.1847009536E+00      0.3663142113E+00
          0                 3           2             4    6     1      -0.2211494724E-03       4    6    1        -0.1292538215E-01      0.2559828477E-01
          0                 4           1             4    6     1       0.8809374480E-05       4    6    1         0.5289001160E-03      0.1046882118E-02

    ------------------------------------------------
       NWT REQUIRED            4 OUTER ITERATIONS 
       AND A TOTAL OF          7 INNER ITERATIONS.
    ------------------------------------------------

 NO OUTPUT CONTROL FOR STRESS PERIOD   48   TIME STEP   25
 
 SOLVING FOR HEAD 
                                                   Max.-Head-Change                         Max.-Flux-Residual
  Residual-Control   Outer-Iter.   Inner-Iter.     Column Row Layer    Maximum-Head-Change  Column Row Layer    Maximum-Flux-Residual          L2-NORM 
          0                 1           2             4    5     1       0.3137717684E-01       4    6    1        -0.1731834806E+01      0.3565082876E+01
          0                 2           2             4    5     1      -0.3051989338E-02       4    6    1         0.1731744028E+00      0.3515605091E+00
          0                 3           2             4    5     1       0.2078332680E-03       4    6    1        -0.1211891589E-01      0.2456631237E-01
          0                 4           1             4    5     1      -0.8269757717E-05       4    6    1         0.4958888926E-03      0.1004689486E-02

    ------------------------------------------------
       NWT REQUIRED            4 OUTER ITERATIONS 
       AND A TOTAL OF          7 INNER ITERATIONS.
    ------------------------------------------------

 NO OUTPUT CONTROL FOR STRESS PERIOD   48   TIME STEP   26
 
 SOLVING FOR HEAD 
                                                   Max.-Head-Change                         Max.-Flux-Residual
  Residual-Control   Outer-Iter.   Inner-Iter.     Column Row Layer    Maximum-Head-Change  Column Row Layer    Maximum-Flux-Residual          L2-NORM 
          0                 1           2             4    5     1       0.2983310723E-01       4    5    1         0.1630316407E+01      0.3424605655E+01
          0                 2           2             4    5     1      -0.2901810669E-02       4    5    1        -0.1630290328E+00      0.3377449195E+00
          0                 3           2             4    5     1       0.1976062171E-03       4    5    1         0.1141206203E-01      0.2359985228E-01
          0                 4           1             4    5     1      -0.7862826895E-05       4    5    1        -0.4667538697E-03      0.9651704827E-03

    ------------------------------------------------
       NWT REQUIRED            4 OUTER ITERATIONS 
       AND A TOTAL OF          7 INNER ITERATIONS.
    ------------------------------------------------

 NO OUTPUT CONTROL FOR STRESS PERIOD   48   TIME STEP   27
 
 SOLVING FOR HEAD 
                                                   Max.-Head-Change                         Max.-Flux-Residual
  Residual-Control   Outer-Iter.   Inner-Iter.     Column Row Layer    Maximum-Head-Change  Column Row Layer    Maximum-Flux-Residual          L2-NORM 
          0                 1           2             4    5     1       0.2838080809E-01       4    5    1         0.1550088144E+01      0.3293246919E+01
          0                 2           2             4    5     1      -0.2760556596E-02       4    5    1        -0.1550065431E+00      0.3248040497E+00
          0                 3           2             4    5     1       0.1879869543E-03       4    5    1         0.1085048430E-01      0.2269448574E-01
          0                 4           1             4    5     1      -0.7480078970E-05       4    5    1        -0.4437853268E-03      0.9281490192E-03

    ------------------------------------------------
       NWT REQUIRED            4 OUTER ITERATIONS 
       AND A TOTAL OF          7 INNER ITERATIONS.
    ------------------------------------------------

 NO OUTPUT CONTROL FOR STRESS PERIOD   48   TIME STEP   28
 
 SOLVING FOR HEAD 
                                                   Max.-Head-Change                         Max.-Flux-Residual
  Residual-Control   Outer-Iter.   Inner-Iter.     Column Row Layer    Maximum-Head-Change  Column Row Layer    Maximum-Flux-Residual          L2-NORM 
          0                 1           2             4    5     1       0.2701459417E-01       4    5    1         0.1474632866E+01      0.3170363039E+01
          0                 2           2             4    5     1      -0.2627694876E-02       4    5    1        -0.1474630396E+00      0.3126808845E+00
          0                 3           2             4    5     1       0.1789384438E-03       4    5    1         0.1032238331E-01      0.2184620634E-01
          0                 4           1             4    5     1      -0.7120043880E-05       4    5    1        -0.4221862127E-03      0.9215083417E-03

    ------------------------------------------------
       NWT REQUIRED            4 OUTER ITERATIONS 
       AND A TOTAL OF          7 INNER ITERATIONS.
    ------------------------------------------------

 NO OUTPUT CONTROL FOR STRESS PERIOD   48   TIME STEP   29
 
 SOLVING FOR HEAD 
                                                   Max.-Head-Change                         Max.-Flux-Residual
  Residual-Control   Outer-Iter.   Inner-Iter.     Column Row Layer    Maximum-Head-Change  Column Row Layer    Maximum-Flux-Residual          L2-NORM 
          0                 1           2             4    5     1       0.2572880214E-01       4    5    1         0.1403639988E+01      0.3055354233E+01
          0                 2           2             4    5     1      -0.2502684719E-02       4    5    1        -0.1403672400E+00      0.3013200596E+00
          0                 3           2             4    5     1       0.1704255126E-03       4    5    1         0.9825680355E-02      0.2105124565E-01
          0                 4           1             4    5     1      -0.6781314878E-05       4    5    1        -0.4018710224E-03      0.8609476220E-03

    ------------------------------------------------
       NWT REQUIRED            4 OUTER ITERATIONS 
       AND A TOTAL OF          7 INNER ITERATIONS.
    ------------------------------------------------

 NO OUTPUT CONTROL FOR STRESS PERIOD   48   TIME STEP   30



 STREAM LISTING     PERIOD     48   STEP       30

 LAYER ROW COL. STREAM  RCH.  FLOW INTO     FLOW TO   FLOW OUT OF   OVRLND.     DIRECT     STREAM       STREAM     STREAM     STREAM   STREAMBED  STREAMBED
                SEG.NO.  NO.  STRM. RCH.    AQUIFER    STRM. RCH.    RUNOFF     PRECIP       ET          HEAD       DEPTH      WIDTH   CONDCTNC.   GRADIENT

   1    1    1     1     1    7.8748E+00  1.2804E-01   7.7467E+00  0.000E+00  0.000E+00  0.000E+00  1.09388E+03  8.295E-01  7.430E+00  3.344E-02  1.276E+00
   1    2    2     1     2    7.7467E+00  1.9662E-01   7.5501E+00  0.000E+00  0.000E+00  0.000E+00  1.08888E+03  8.237E-01  7.346E+00  5.142E-02  1.275E+00
   1    3    3     1     3    7.5501E+00  1.6606E-01   7.3840E+00  0.000E+00  0.000E+00  0.000E+00  1.08324E+03  8.172E-01  7.251E+00  4.350E-02  1.272E+00
   1    3    4     1     4    7.3840E+00  1.5159E-01   7.2324E+00  0.000E+00  0.000E+00  0.000E+00  1.07822E+03  8.115E-01  7.166E+00  3.977E-02  1.270E+00
   1    4    5     2     1    5.2324E+00  2.7028E-01   4.9622E+00  0.000E+00  0.000E+00  0.000E+00  1.07240E+03  4.651E-01  1.200E+01  7.800E-02  1.155E+00
   1    5    6     2     2    4.9622E+00  2.0711E-01   4.7551E+00  0.000E+00  0.000E+00  0.000E+00  1.06696E+03  4.519E-01  1.200E+01  6.000E-02  1.151E+00
   1    6    6     2     3    4.7551E+00  2.0642E-01   4.5486E+00  0.000E+00  0.000E+00  0.000E+00  1.06223E+03  4.403E-01  1.200E+01  6.000E-02  1.147E+00
   1    7    6     2     4    4.5486E+00  2.0571E-01   4.3429E+00  0.000E+00  0.000E+00  0.000E+00  1.05750E+03  4.285E-01  1.200E+01  6.000E-02  1.143E+00
   1    8    6     2     5    4.3429E+00  2.0499E-01   4.1379E+00  0.000E+00  0.000E+00  0.000E+00  1.05278E+03  4.165E-01  1.200E+01  6.000E-02  1.139E+00
   1    3    5     3     1    2.0000E+00  2.8252E-01   1.7175E+00  0.000E+00  0.000E+00  0.000E+00  1.07555E+03  1.909E+00  9.636E+00  7.227E-02  1.955E+00
   1    3    6     3     2    1.7175E+00  2.4905E-01   1.4684E+00  0.000E+00  0.000E+00  0.000E+00  1.07264E+03  1.727E+00  8.909E+00  6.682E-02  1.864E+00
   1    3    7     3     3    1.4684E+00  1.9718E-01   1.2712E+00  0.000E+00  0.000E+00  0.000E+00  1.06987E+03  1.555E+00  8.218E+00  5.547E-02  1.777E+00
   1    4    8     3     4    1.2712E+00  2.2567E-01   1.0456E+00  0.000E+00  0.000E+00  0.000E+00  1.06682E+03  1.364E+00  7.455E+00  6.709E-02  1.682E+00
   1    5    8     3     5    1.0456E+00  1.5790E-01   8.8768E-01  0.000E+00  0.000E+00  0.000E+00  1.06362E+03  1.164E+00  6.655E+00  4.991E-02  1.582E+00
   1    6    8     3     6    8.8768E-01  5.5980E-02   8.3170E-01  0.000E+00  0.000E+00  0.000E+00  1.06158E+03  1.036E+00  6.145E+00  1.844E-02  1.518E+00
   1    5   10     4     1    1.0000E+01  9.0919E-02   9.9091E+00  0.000E+00  0.000E+00  0.000E+00  1.07836E+03  6.368E-01  1.000E+01  2.500E-02  1.212E+00
   1    5    9     4     2    9.9091E+00  1.8158E-01   9.7275E+00  0.000E+00  0.000E+00  0.000E+00  1.07154E+03  6.315E-01  1.000E+01  5.000E-02  1.211E+00
   1    6    8     4     3    9.7275E+00  1.2689E-01   9.6006E+00  0.000E+00  0.000E+00  0.000E+00  1.06381E+03  6.256E-01  1.000E+01  3.500E-02  1.209E+00
   1    6    8     5     1    1.0432E+01  2.2686E-01   1.0205E+01  0.000E+00  0.000E+00  0.000E+00  1.05868E+03  6.790E-01  1.542E+01  6.166E-02  1.226E+00
   1    7    7     5     2    1.0205E+01  2.7894E-01   9.9265E+00  0.000E+00  0.000E+00  0.000E+00  1.05417E+03  6.732E-01  1.519E+01  7.594E-02  1.224E+00
   1    8    7     5     3    9.9265E+00  1.9221E-01   9.7343E+00  0.000E+00  0.000E+00  0.000E+00  1.04992E+03  6.676E-01  1.497E+01  5.241E-02  1.223E+00
   1    8    6     5     4    9.7343E+00  1.3577E-01   9.5985E+00  0.000E+00  0.000E+00  0.000E+00  1.04691E+03  6.637E-01  1.482E+01  3.706E-02  1.221E+00
   1    9    6     6     1    1.3736E+01  2.3089E-01   1.3506E+01  0.000E+00  0.000E+00  0.000E+00  1.04358E+03  8.482E-01  1.200E+01  6.000E-02  1.283E+00
   1   10    7     6     2    1.3506E+01  2.3037E-01   1.3275E+01  0.000E+00  0.000E+00  0.000E+00  1.03902E+03  8.396E-01  1.200E+01  6.000E-02  1.280E+00
   1   11    7     6     3    1.3275E+01  2.2985E-01   1.3045E+01  0.000E+00  0.000E+00  0.000E+00  1.03447E+03  8.309E-01  1.200E+01  6.000E-02  1.277E+00
   1   12    7     6     4    1.3045E+01  2.2933E-01   1.2816E+01  0.000E+00  0.000E+00  0.000E+00  1.02991E+03  8.221E-01  1.200E+01  6.000E-02  1.274E+00
   1   13    7     6     5    1.2816E+01  6.1359E-03   1.2810E+01  0.000E+00  0.000E+00  0.000E+00  1.02673E+03  8.176E-01  1.200E+01  2.400E-02  8.522E-02
   1   14    9     7     1    1.5000E+02  1.4043E+00   1.4860E+02  0.000E+00  0.000E+00  0.000E+00  1.03987E+03  2.288E+00  5.529E+01  5.593E-01  8.369E-01
   1   13    8     7     2    1.4860E+02  2.0364E+00   1.4656E+02  0.000E+00  0.000E+00  0.000E+00  1.03478E+03  2.278E+00  5.525E+01  6.147E-01  1.104E+00
   1   13    7     7     3    1.4656E+02  1.7959E+00   1.4476E+02  0.000E+00  0.000E+00  0.000E+00  1.02969E+03  2.268E+00  5.521E+01  5.583E-01  1.072E+00
   1   13    6     8     1    1.5757E+02  1.1666E+00   1.5641E+02  0.000E+00  0.000E+00  0.000E+00  1.02474E+03  2.865E+00  4.155E+01  4.234E-01  9.184E-01
   1   13    5     8     2    1.5641E+02  4.1107E-01   1.5600E+02  0.000E+00  0.000E+00  0.000E+00  1.01848E+03  2.860E+00  4.147E+01  4.226E-01  3.243E-01
   1   13    4     8     3    1.5600E+02 -1.6178E+00   1.5761E+02  0.000E+00  0.000E+00  0.000E+00  1.01224E+03  2.864E+00  4.153E+01  4.232E+00 -1.274E-01
   1   13    3     8     4    1.5761E+02 -3.2415E+00   1.6085E+02  0.000E+00  0.000E+00  0.000E+00  1.00601E+03  2.881E+00  4.177E+01  4.256E+00 -2.538E-01
   1   13    2     8     5    1.6085E+02 -2.4731E+00   1.6333E+02  0.000E+00  0.000E+00  0.000E+00  9.99775E+02  2.900E+00  4.205E+01  4.285E+00 -1.924E-01
   1   13    1     8     6    1.6333E+02 -1.9504E+00   1.6528E+02  0.000E+00  0.000E+00  0.000E+00  9.94790E+02  2.915E+00  4.226E+01  2.584E+00 -2.516E-01
   1    8    6     9     1    0.0000E+00  0.0000E+00   0.0000E+00  0.000E+00  0.000E+00  0.000E+00  1.07875E+03  0.000E+00  4.000E+00  0.000E+00  1.000E+00
   1    8    5     9     2    0.0000E+00  0.0000E+00   0.0000E+00  0.000E+00  0.000E+00  0.000E+00  1.07825E+03  0.000E+00  4.000E+00  0.000E+00  1.000E+00





UNSATURATED ZONE PACKAGE VOLUMETRIC BUDGET FOR  TIME STEP    30 STRESS PERIOD   48
  ------------------------------------------------------------------------------



     CUMULATIVE VOLUMES      L**3       RATES FOR THIS TIME STEP      L**3/T
     ------------------                 ------------------------

           IN:                                      IN:
           ---                                      ---
        INFILTRATION =  2463158345.9585          INFILTRATION =           4.4075

          OUT:                                     OUT:
          ----                                     ----
              UZF ET =  1986179669.2911                UZF ET =           0.7250
        UZF RECHARGE =   146928402.8818          UZF RECHARGE =           0.0975

            IN - OUT =   330050273.7856              IN - OUT =           3.5850

          STORAGE:                                 STORAGE:
          --------                                 --------
      STORAGE CHANGE =   330050229.0549        STORAGE CHANGE =           3.5850

 PERCENT DISCREPANCY IS DIFFERENCE BETWEEN IN-OUT MINUS CHANGE IN STORAGE
 DIVIDED BY THE AVERAGE OF IN AND OUT TIMES 100

 PERCENT DISCREPANCY =           0.00     PERCENT DISCREPANCY =           0.00






1
  VOLUMETRIC BUDGET FOR AGRICULTURAL FIELDS AT  END OF TIME STEP   30, STRESS PERIOD  48
  ------------------------------------------------------------------------------

     CUMULATIVE VOLUMES      L**3       RATES FOR THIS TIME STEP      L**3/T
     ------------------                 ------------------------

           IN:                                      IN:
           ---                                      ---
               AG WELLS  =  1211364864.0000                 AG WELLS  =           0.0000
      DIVERSION SEGMENTS =   707465664.0000        DIVERSION SEGMENTS =           0.0000
           GW IRRIGATION =           0.0000             GW IRRIGATION =           0.0000
           SW IRRIGATION =           0.0000             SW IRRIGATION =           0.0000
        SYSTEM LOSSES GW =           0.0000          SYSTEM LOSSES GW =           0.0000
        SYSTEM LOSSES SW =           0.0000          SYSTEM LOSSES SW =           0.0000

                TOTAL IN =  1918830592.0000                  TOTAL IN =           0.0000

          OUT:                                     OUT:
          ----                                     ----
               AG WELLS  =           0.0000                 AG WELLS  =           0.0000
      DIVERSION SEGMENTS =           0.0000        DIVERSION SEGMENTS =           0.0000
           GW IRRIGATION =  1211364864.0000             GW IRRIGATION =           0.0000
           SW IRRIGATION =   707479104.0000             SW IRRIGATION =           0.0000
        SYSTEM LOSSES GW =           0.0000          SYSTEM LOSSES GW =           0.0000
        SYSTEM LOSSES SW =           0.0000          SYSTEM LOSSES SW =           0.0000

               TOTAL OUT =  1918843904.0000                 TOTAL OUT =           0.0000

                IN - OUT =      -13312.0000                  IN - OUT =           0.0000

     PERCENT DISCREPANCY =          -0.00         PERCENT DISCREPANCY =           0.00



1
  VOLUMETRIC BUDGET FOR ENTIRE MODEL AT END OF TIME STEP   30, STRESS PERIOD  48
  ------------------------------------------------------------------------------

     CUMULATIVE VOLUMES      L**3       RATES FOR THIS TIME STEP      L**3/T
     ------------------                 ------------------------

           IN:                                      IN:
           ---                                      ---
             STORAGE     =  1763515648.0000               STORAGE     =           7.0186
       CONSTANT HEAD     =           0.0000         CONSTANT HEAD     =           0.0000
     HEAD DEP BOUNDS     =    35721752.0000       HEAD DEP BOUNDS     =           0.2904
      STREAM LEAKAGE     =  1481097728.0000        STREAM LEAKAGE     =          11.8791
        UZF RECHARGE     =   146928464.0000          UZF RECHARGE     =       9.7464E-02
               GW ET     =           0.0000                 GW ET     =           0.0000
     SURFACE LEAKAGE     =           0.0000       SURFACE LEAKAGE     =           0.0000
           AG WELLS      =           0.0000             AG WELLS      =           0.0000

                TOTAL IN =  3427263488.0000                  TOTAL IN =          19.2855

          OUT:                                     OUT:
          ----                                     ----
             STORAGE     =   961900032.0000               STORAGE     =           9.7161
       CONSTANT HEAD     =           0.0000         CONSTANT HEAD     =           0.0000
     HEAD DEP BOUNDS     =    35593396.0000       HEAD DEP BOUNDS     =           0.2867
      STREAM LEAKAGE     =  1218404736.0000        STREAM LEAKAGE     =           9.2828
        UZF RECHARGE     =           0.0000          UZF RECHARGE     =           0.0000
               GW ET     =           0.0000                 GW ET     =           0.0000
     SURFACE LEAKAGE     =           0.0000       SURFACE LEAKAGE     =           0.0000
           AG WELLS      =  1211364864.0000             AG WELLS      =           0.0000

               TOTAL OUT =  3427262976.0000                 TOTAL OUT =          19.2855

                IN - OUT =         512.0000                  IN - OUT =       1.1444E-05

     PERCENT DISCREPANCY =           0.00         PERCENT DISCREPANCY =           0.00






         TIME SUMMARY AT END OF TIME STEP   30 IN STRESS PERIOD   48
                    SECONDS     MINUTES      HOURS       DAYS        YEARS
                    -----------------------------------------------------------
   TIME STEP LENGTH  87667.      1461.1      24.352      1.0147     2.77799E-03
 STRESS PERIOD TIME 2.63000E+06  43833.      730.56      30.440     8.33397E-02
         TOTAL TIME 1.23695E+08 2.06158E+06  34360.      1431.7      3.9197    
1
1
                            STRESS PERIOD NO.   49, LENGTH =   2630000.    
                            -----------------------------------------------

                              NUMBER OF TIME STEPS =    30

                               MULTIPLIER FOR DELT =     1.000

                            INITIAL TIME STEP SIZE =   87666.66    

 REUSING NON-PARAMETER GHB CELLS FROM LAST STRESS PERIOD

      2 GHB CELLS

 REUSING STREAM SEGMENT DATA FROM LAST STRESS PERIOD



            AREAL INFILTRATION RATE
 READING ON UNIT   19 WITH FORMAT: (10F4.0)            

            1           2           3           4           5           6           7           8           9          10
 ........................................................................................................................
   1   1.2000E-09   0.000       0.000       0.000       0.000       0.000       0.000       0.000       0.000       0.000    
   2   2.1000E-09  2.0000E-09  8.0000E-10  8.5000E-09   0.000       0.000       0.000       0.000       0.000       0.000    
   3   5.0000E-10  1.1000E-09  8.8000E-09  5.5000E-09   0.000       0.000       0.000       0.000       0.000       0.000    
   4   8.5000E-09  1.1000E-09  1.1000E-09  1.1000E-09  2.0000E-09   0.000       0.000       0.000       0.000       0.000    
   5   8.5000E-09  1.1000E-09  1.1000E-09  1.1000E-09  1.1000E-09   0.000       0.000       0.000       0.000       0.000    
   6   8.5000E-09  5.2000E-09  2.1000E-09  1.1000E-09  1.5000E-09   0.000       0.000       0.000       0.000       0.000    
   7   8.5000E-09  5.2000E-09  2.1000E-09  1.2000E-09  2.0000E-09   0.000       0.000       0.000       0.000       0.000    
   8   5.0000E-10  5.2000E-09  2.1000E-09  1.2000E-09  5.0000E-09   0.000       0.000       0.000       0.000       0.000    
   9   5.0000E-10  5.2000E-09  2.1000E-09  1.2000E-09  5.0000E-09   0.000       0.000       0.000       0.000       0.000    
  10   5.0000E-10  5.2000E-09  2.1000E-09  1.2000E-09  5.8000E-09   0.000       0.000       0.000       0.000       0.000    
  11   1.0000E-10  1.1000E-09  1.1000E-09  1.2000E-09  5.0000E-09   0.000       0.000       0.000       0.000       0.000    
  12   1.1000E-09  1.1000E-09  1.1000E-09  1.1000E-09  2.0000E-09   0.000       0.000       0.000       0.000       0.000    
  13   1.1000E-09  2.2000E-09  2.2000E-09  2.1000E-09  1.0000E-09   0.000       0.000       0.000       0.000       0.000    
  14   2.0000E-10  5.5000E-09  5.5000E-09  5.2000E-09  1.0000E-09   0.000       0.000       0.000       0.000       0.000    
  15    0.000      8.8000E-09  8.8000E-09   0.000       0.000       0.000       0.000       0.000       0.000       0.000    

                  ET RATE =  5.000000E-10

 USING ET EXTINCTION DEPTH FROM PREVIOUS STRESS PERIOD. CURRENT PERIOD IS:      49

 USING EXTINCTION WATER CONTENT FROM PREVIOUS STRESS PERIOD. CURRENT PERIOD IS:      49

 USING AIR ENTRY PRESSURE FROM PREVIOUS STRESS PERIOD. CURRENT PERIOD IS:      49

 USING ROOT PRESSURE HEAD FROM PREVIOUS STRESS PERIOD. CURRENT PERIOD IS:      49

 USING ROOT ACTIVITY FROM PREVIOUS STRESS PERIOD. CURRENT PERIOD IS:      49

 PROCESSING AG STRESS PERIOD DATA

 READING AG STRESS PERIOD DATA

 READING IRRIGATION SEGMENT

 READING IRRIGATION WELL

 READING SUPPLEMENTAL WELL

 END PROCESSING AG STRESS PERIOD DATA OPTIONS
 
 SOLVING FOR HEAD 
                                                   Max.-Head-Change                         Max.-Flux-Residual
  Residual-Control   Outer-Iter.   Inner-Iter.     Column Row Layer    Maximum-Head-Change  Column Row Layer    Maximum-Flux-Residual          L2-NORM 
          0                 1           2             4    5     1       0.2451857335E-01       4    5    1         0.1336837418E+01      0.2947674794E+01
          0                 2           2             4    5     1      -0.2384964541E-02       4    5    1        -0.1336866769E+00      0.2906661930E+00
          0                 3           2             4    5     1       0.1624090332E-03       4    5    1         0.9358043636E-02      0.2030570369E-01
          0                 4           1             4    5     1      -0.6462339010E-05       4    5    1        -0.3827446421E-03      0.8304545046E-03

    ------------------------------------------------
       NWT REQUIRED            4 OUTER ITERATIONS 
       AND A TOTAL OF          7 INNER ITERATIONS.
    ------------------------------------------------

 NO OUTPUT CONTROL FOR STRESS PERIOD   49   TIME STEP    1
 
 SOLVING FOR HEAD 
                                                   Max.-Head-Change                         Max.-Flux-Residual
  Residual-Control   Outer-Iter.   Inner-Iter.     Column Row Layer    Maximum-Head-Change  Column Row Layer    Maximum-Flux-Residual          L2-NORM 
          0                 1           2             4    5     1       0.2337900123E-01       4    5    1         0.1273948611E+01      0.2846805181E+01
          0                 2           2             4    5     1      -0.2274116788E-02       4    5    1        -0.1273975208E+00      0.2806747808E+00
          0                 3           2             4    5     1       0.1548605681E-03       4    5    1         0.8917805121E-02      0.1960647365E-01
          0                 4           1             4    5     1      -0.6161984340E-05       4    5    1        -0.3647388435E-03      0.8018728369E-03

    ------------------------------------------------
       NWT REQUIRED            4 OUTER ITERATIONS 
       AND A TOTAL OF          7 INNER ITERATIONS.
    ------------------------------------------------

 NO OUTPUT CONTROL FOR STRESS PERIOD   49   TIME STEP    2
 
 SOLVING FOR HEAD 
                                                   Max.-Head-Change                         Max.-Flux-Residual
  Residual-Control   Outer-Iter.   Inner-Iter.     Column Row Layer    Maximum-Head-Change  Column Row Layer    Maximum-Flux-Residual          L2-NORM 
          0                 1           2             4    5     1       0.2230585213E-01       4    5    1         0.1214737977E+01      0.2752288736E+01
          0                 2           2             4    5     1      -0.2169729694E-02       4    5    1        -0.1214762096E+00      0.2713028264E+00
          0                 3           2             4    5     1       0.1477520759E-03       4    5    1         0.8503315506E-02      0.1895054379E-01
          0                 4           1             4    5     1      -0.5879136204E-05       4    5    1        -0.3477861933E-03      0.7750441699E-03

    ------------------------------------------------
       NWT REQUIRED            4 OUTER ITERATIONS 
       AND A TOTAL OF          7 INNER ITERATIONS.
    ------------------------------------------------

 NO OUTPUT CONTROL FOR STRESS PERIOD   49   TIME STEP    3
 
 SOLVING FOR HEAD 
                                                   Max.-Head-Change                         Max.-Flux-Residual
  Residual-Control   Outer-Iter.   Inner-Iter.     Column Row Layer    Maximum-Head-Change  Column Row Layer    Maximum-Flux-Residual          L2-NORM 
          0                 1           2             4    5     1       0.2129502924E-01       4    5    1         0.1158978674E+01      0.2663737581E+01
          0                 2           2             4    5     1      -0.2071404792E-02       4    5    1        -0.1159000560E+00      0.2625139726E+00
          0                 3           2             4    5     1       0.1410564197E-03       4    5    1         0.8112986714E-02      0.1833535875E-01
          0                 4           1             4    5     1      -0.5612714128E-05       4    5    1        -0.3318217186E-03      0.7498866970E-03

    ------------------------------------------------
       NWT REQUIRED            4 OUTER ITERATIONS 
       AND A TOTAL OF          7 INNER ITERATIONS.
    ------------------------------------------------

 NO OUTPUT CONTROL FOR STRESS PERIOD   49   TIME STEP    4
 
 SOLVING FOR HEAD 
                                                   Max.-Head-Change                         Max.-Flux-Residual
  Residual-Control   Outer-Iter.   Inner-Iter.     Column Row Layer    Maximum-Head-Change  Column Row Layer    Maximum-Flux-Residual          L2-NORM 
          0                 1           2             3    7     1       0.2076842903E-01       4    5    1         0.1106458283E+01      0.2580731162E+01
          0                 2           2             3    7     1      -0.2017799787E-02       4    5    1        -0.1106478157E+00      0.2546513275E+00
          0                 3           2             3    7     1       0.1374842923E-03       4    5    1         0.7745331559E-02      0.1778502382E-01
          0                 4           1             3    7     1      -0.5468007023E-05       4    5    1        -0.3167845935E-03      0.7273771078E-03

    ------------------------------------------------
       NWT REQUIRED            4 OUTER ITERATIONS 
       AND A TOTAL OF          7 INNER ITERATIONS.
    ------------------------------------------------

 NO OUTPUT CONTROL FOR STRESS PERIOD   49   TIME STEP    5
 
 SOLVING FOR HEAD 
                                                   Max.-Head-Change                         Max.-Flux-Residual
  Residual-Control   Outer-Iter.   Inner-Iter.     Column Row Layer    Maximum-Head-Change  Column Row Layer    Maximum-Flux-Residual          L2-NORM 
          0                 1           2             3    7     1       0.2045529057E-01       4    5    1         0.1056992747E+01      0.2502492963E+01
          0                 2           2             3    7     1      -0.1987463776E-02       4    5    1        -0.1057010792E+00      0.2464914388E+00
          0                 3           2             3    7     1       0.1354142374E-03       4    5    1         0.7399061658E-02      0.1721375712E-01
          0                 4           1             3    7     1      -0.5385778977E-05       4    5    1        -0.3026221220E-03      0.7040147291E-03

    ------------------------------------------------
       NWT REQUIRED            4 OUTER ITERATIONS 
       AND A TOTAL OF          7 INNER ITERATIONS.
    ------------------------------------------------

 NO OUTPUT CONTROL FOR STRESS PERIOD   49   TIME STEP    6
 
 SOLVING FOR HEAD 
                                                   Max.-Head-Change                         Max.-Flux-Residual
  Residual-Control   Outer-Iter.   Inner-Iter.     Column Row Layer    Maximum-Head-Change  Column Row Layer    Maximum-Flux-Residual          L2-NORM 
          0                 1           2             3    7     1       0.2014618059E-01       4    5    1         0.1010397619E+01      0.2429041012E+01
          0                 2           2             3    7     1      -0.1957488107E-02       4    5    1        -0.1010414023E+00      0.2391848653E+00
          0                 3           2             3    7     1       0.1333699695E-03       4    5    1         0.7072885674E-02      0.1670226598E-01
          0                 4           1             3    7     1      -0.5304535041E-05       4    5    1        -0.2892814882E-03      0.6831250525E-03

    ------------------------------------------------
       NWT REQUIRED            4 OUTER ITERATIONS 
       AND A TOTAL OF          7 INNER ITERATIONS.
    ------------------------------------------------

 NO OUTPUT CONTROL FOR STRESS PERIOD   49   TIME STEP    7
 
 SOLVING FOR HEAD 
                                                   Max.-Head-Change                         Max.-Flux-Residual
  Residual-Control   Outer-Iter.   Inner-Iter.     Column Row Layer    Maximum-Head-Change  Column Row Layer    Maximum-Flux-Residual          L2-NORM 
          0                 1           2             3    7     1       0.1984108257E-01       4    5    1         0.9664908375E+00      0.2360115938E+01
          0                 2           2             3    7     1      -0.1927877259E-02       4    5    1        -0.9665057607E-01      0.2323244590E+00
          0                 3           2             3    7     1       0.1313513774E-03       4    5    1         0.6765529128E-02      0.1622196764E-01
          0                 4           1             3    7     1      -0.5224285923E-05       4    5    1        -0.2767105861E-03      0.6634456723E-03

    ------------------------------------------------
       NWT REQUIRED            4 OUTER ITERATIONS 
       AND A TOTAL OF          7 INNER ITERATIONS.
    ------------------------------------------------

 NO OUTPUT CONTROL FOR STRESS PERIOD   49   TIME STEP    8
 
 SOLVING FOR HEAD 
                                                   Max.-Head-Change                         Max.-Flux-Residual
  Residual-Control   Outer-Iter.   Inner-Iter.     Column Row Layer    Maximum-Head-Change  Column Row Layer    Maximum-Flux-Residual          L2-NORM 
          0                 1           2             3    7     1       0.1954042865E-01       4    5    1         0.9251095770E+00      0.2295407819E+01
          0                 2           2             3    7     1      -0.1898676111E-02       4    5    1        -0.9251231633E-01      0.2258802870E+00
          0                 3           2             3    7     1       0.1293614246E-03       4    5    1         0.6475852069E-02      0.1577079969E-01
          0                 4           1             3    7     1      -0.5145152506E-05       4    5    1        -0.2648627838E-03      0.6449938844E-03

    ------------------------------------------------
       NWT REQUIRED            4 OUTER ITERATIONS 
       AND A TOTAL OF          7 INNER ITERATIONS.
    ------------------------------------------------

 NO OUTPUT CONTROL FOR STRESS PERIOD   49   TIME STEP    9
 
 SOLVING FOR HEAD 
                                                   Max.-Head-Change                         Max.-Flux-Residual
  Residual-Control   Outer-Iter.   Inner-Iter.     Column Row Layer    Maximum-Head-Change  Column Row Layer    Maximum-Flux-Residual          L2-NORM 
          0                 1           2             3    7     1       0.1924412826E-01       4    5    1         0.8861018982E+00      0.2234620938E+01
          0                 2           2             3    7     1      -0.1869878429E-02       4    5    1        -0.8861142767E-01      0.2198236767E+00
          0                 3           2             3    7     1       0.1273996020E-03       4    5    1         0.6202790900E-02      0.1534669674E-01
          0                 4           1             3    7     1      -0.5067116486E-05       4    5    1        -0.2536945626E-03      0.6276563304E-03

    ------------------------------------------------
       NWT REQUIRED            4 OUTER ITERATIONS 
       AND A TOTAL OF          7 INNER ITERATIONS.
    ------------------------------------------------

 NO OUTPUT CONTROL FOR STRESS PERIOD   49   TIME STEP   10
 
 SOLVING FOR HEAD 
                                                   Max.-Head-Change                         Max.-Flux-Residual
  Residual-Control   Outer-Iter.   Inner-Iter.     Column Row Layer    Maximum-Head-Change  Column Row Layer    Maximum-Flux-Residual          L2-NORM 
          0                 1           2             3    7     1       0.1895230867E-01       4    5    1         0.8493260285E+00      0.2177507252E+01
          0                 2           2             3    7     1      -0.1841498757E-02       4    5    1        -0.8493373154E-01      0.2141305377E+00
          0                 3           2             3    7     1       0.1254668290E-03       4    5    1         0.5945353082E-02      0.1494809254E-01
          0                 4           1             3    7     1      -0.4990217696E-05       4    5    1        -0.2431653311E-03      0.6113501118E-03

    ------------------------------------------------
       NWT REQUIRED            4 OUTER ITERATIONS 
       AND A TOTAL OF          7 INNER ITERATIONS.
    ------------------------------------------------

 NO OUTPUT CONTROL FOR STRESS PERIOD   49   TIME STEP   11
 
 SOLVING FOR HEAD 
                                                   Max.-Head-Change                         Max.-Flux-Residual
  Residual-Control   Outer-Iter.   Inner-Iter.     Column Row Layer    Maximum-Head-Change  Column Row Layer    Maximum-Flux-Residual          L2-NORM 
          0                 1           2             3    7     1       0.1866555616E-01       4    5    1         0.8146348169E+00      0.2123815208E+01
          0                 2           2             3    7     1      -0.1813596246E-02       4    5    1        -0.8146451165E-01      0.2087761157E+00
          0                 3           2             3    7     1       0.1235670639E-03       4    5    1         0.5702508529E-02      0.1457314540E-01
          0                 4           1             3    7     1      -0.4914615243E-05       4    5    1        -0.2332329595E-03      0.5960218940E-03

    ------------------------------------------------
       NWT REQUIRED            4 OUTER ITERATIONS 
       AND A TOTAL OF          7 INNER ITERATIONS.
    ------------------------------------------------

 NO OUTPUT CONTROL FOR STRESS PERIOD   49   TIME STEP   12
 
 SOLVING FOR HEAD 
                                                   Max.-Head-Change                         Max.-Flux-Residual
  Residual-Control   Outer-Iter.   Inner-Iter.     Column Row Layer    Maximum-Head-Change  Column Row Layer    Maximum-Flux-Residual          L2-NORM 
          0                 1           2             3    7     1       0.1838345124E-01       4    5    1         0.7819127838E+00      0.2073307337E+01
          0                 2           2             3    7     1      -0.1786132012E-02       4    5    1        -0.7819221896E-01      0.2037371246E+00
          0                 3           2             3    7     1       0.1216975961E-03       4    5    1         0.5473448785E-02      0.1422028480E-01
          0                 4           1             3    7     1      -0.4840202864E-05       4    5    1        -0.2238644133E-03      0.5815947513E-03

    ------------------------------------------------
       NWT REQUIRED            4 OUTER ITERATIONS 
       AND A TOTAL OF          7 INNER ITERATIONS.
    ------------------------------------------------

 NO OUTPUT CONTROL FOR STRESS PERIOD   49   TIME STEP   13
 
 SOLVING FOR HEAD 
                                                   Max.-Head-Change                         Max.-Flux-Residual
  Residual-Control   Outer-Iter.   Inner-Iter.     Column Row Layer    Maximum-Head-Change  Column Row Layer    Maximum-Flux-Residual          L2-NORM 
          0                 1           2             3    7     1       0.1810605172E-01       4    5    1         0.7510446536E+00      0.2025784392E+01
          0                 2           2             3    7     1      -0.1759113422E-02       4    5    1        -0.7510532499E-01      0.1989938861E+00
          0                 3           2             3    7     1       0.1198588704E-03       4    5    1         0.5257366864E-02      0.1388809088E-01
          0                 4           1             3    7     1      -0.4767001857E-05       4    5    1        -0.2150266364E-03      0.5680101871E-03

    ------------------------------------------------
       NWT REQUIRED            4 OUTER ITERATIONS 
       AND A TOTAL OF          7 INNER ITERATIONS.
    ------------------------------------------------

 NO OUTPUT CONTROL FOR STRESS PERIOD   49   TIME STEP   14
 
 SOLVING FOR HEAD 
                                                   Max.-Head-Change                         Max.-Flux-Residual
  Residual-Control   Outer-Iter.   Inner-Iter.     Column Row Layer    Maximum-Head-Change  Column Row Layer    Maximum-Flux-Residual          L2-NORM 
          0                 1           2             3    7     1       0.1783387862E-01       4    5    1         0.7219081645E+00      0.1981035939E+01
          0                 2           2             3    7     1      -0.1732592556E-02       4    5    1        -0.7219160272E-01      0.1945258559E+00
          0                 3           2             3    7     1       0.1180543871E-03       4    5    1         0.5053406931E-02      0.1357513747E-01
          0                 4           1             3    7     1      -0.4695151643E-05       4    5    1        -0.2066846610E-03      0.5552005713E-03

    ------------------------------------------------
       NWT REQUIRED            4 OUTER ITERATIONS 
       AND A TOTAL OF          7 INNER ITERATIONS.
    ------------------------------------------------

 NO OUTPUT CONTROL FOR STRESS PERIOD   49   TIME STEP   15
 
 SOLVING FOR HEAD 
                                                   Max.-Head-Change                         Max.-Flux-Residual
  Residual-Control   Outer-Iter.   Inner-Iter.     Column Row Layer    Maximum-Head-Change  Column Row Layer    Maximum-Flux-Residual          L2-NORM 
          0                 1           2             3    7     1       0.1756669882E-01       4    5    1         0.6944034958E+00      0.1938881860E+01
          0                 2           2             3    7     1      -0.1706548336E-02       4    5    1        -0.6944106930E-01      0.1903148535E+00
          0                 3           2             3    7     1       0.1162826591E-03       4    5    1         0.4860870142E-02      0.1328016708E-01
          0                 4           1             3    7     1      -0.4624594887E-05       4    5    1        -0.1988098929E-03      0.5431359383E-03

    ------------------------------------------------
       NWT REQUIRED            4 OUTER ITERATIONS 
       AND A TOTAL OF          7 INNER ITERATIONS.
    ------------------------------------------------

 NO OUTPUT CONTROL FOR STRESS PERIOD   49   TIME STEP   16
 
 SOLVING FOR HEAD 
                                                   Max.-Head-Change                         Max.-Flux-Residual
  Residual-Control   Outer-Iter.   Inner-Iter.     Column Row Layer    Maximum-Head-Change  Column Row Layer    Maximum-Flux-Residual          L2-NORM 
          0                 1           2             3    7     1       0.1730451153E-01       4    5    1         0.6684300529E+00      0.1899148286E+01
          0                 2           2             3    7     1      -0.1680981800E-02       4    5    1        -0.6684366463E-01      0.1863440652E+00
          0                 3           2             3    7     1       0.1145437195E-03       4    5    1         0.4679052297E-02      0.1300202887E-01
          0                 4           1             3    7     1      -0.4555334238E-05       4    5    1        -0.1913735391E-03      0.5317710657E-03

    ------------------------------------------------
       NWT REQUIRED            4 OUTER ITERATIONS 
       AND A TOTAL OF          7 INNER ITERATIONS.
    ------------------------------------------------

 NO OUTPUT CONTROL FOR STRESS PERIOD   49   TIME STEP   17
 
 SOLVING FOR HEAD 
                                                   Max.-Head-Change                         Max.-Flux-Residual
  Residual-Control   Outer-Iter.   Inner-Iter.     Column Row Layer    Maximum-Head-Change  Column Row Layer    Maximum-Flux-Residual          L2-NORM 
          0                 1           2             3    7     1       0.1704706176E-01       4    5    1         0.6439083279E+00      0.1861670426E+01
          0                 2           2             3    7     1      -0.1655790654E-02       4    5    1        -0.6439143729E-01      0.1809798622E+00
          0                 3           2             3    7     1       0.1128422857E-03       4    5    1         0.4507396818E-02      0.1262279201E-01
          0                 4           1             1   13     1      -0.6591310041E-05       1   13    1        -0.3807467374E-03      0.6414764556E-03

    ------------------------------------------------
       NWT REQUIRED            4 OUTER ITERATIONS 
       AND A TOTAL OF          7 INNER ITERATIONS.
    ------------------------------------------------

 NO OUTPUT CONTROL FOR STRESS PERIOD   49   TIME STEP   18
 
 SOLVING FOR HEAD 
                                                   Max.-Head-Change                         Max.-Flux-Residual
  Residual-Control   Outer-Iter.   Inner-Iter.     Column Row Layer    Maximum-Head-Change  Column Row Layer    Maximum-Flux-Residual          L2-NORM 
          0                 1           2             3    7     1       0.1679498108E-01       4    5    1         0.6207422896E+00      0.1826395705E+01
          0                 2           2             3    7     1      -0.1631171228E-02       4    5    1        -0.6207478358E-01      0.1776209205E+00
          0                 3           2             3    7     1       0.1111721142E-03       4    5    1         0.4345231465E-02      0.1237558064E-01
          0                 4           1             3    7     1      -0.4420081067E-05       4    5    1        -0.1777202351E-03      0.5061367022E-03

    ------------------------------------------------
       NWT REQUIRED            4 OUTER ITERATIONS 
       AND A TOTAL OF          7 INNER ITERATIONS.
    ------------------------------------------------

 NO OUTPUT CONTROL FOR STRESS PERIOD   49   TIME STEP   19
 
 SOLVING FOR HEAD 
                                                   Max.-Head-Change                         Max.-Flux-Residual
  Residual-Control   Outer-Iter.   Inner-Iter.     Column Row Layer    Maximum-Head-Change  Column Row Layer    Maximum-Flux-Residual          L2-NORM 
          0                 1           2             3    7     1       0.1654792054E-01       4    5    1         0.5988568485E+00      0.1793007874E+01
          0                 2           2             3    7     1      -0.1607048523E-02       4    5    1        -0.5988619414E-01      0.1742446739E+00
          0                 3           2             3    7     1       0.1095323812E-03       4    5    1         0.4192030572E-02      0.1213865680E-01
          0                 4           1             3    7     1      -0.4354739015E-05       4    5    1        -0.1714543073E-03      0.4964467811E-03

    ------------------------------------------------
       NWT REQUIRED            4 OUTER ITERATIONS 
       AND A TOTAL OF          7 INNER ITERATIONS.
    ------------------------------------------------

 NO OUTPUT CONTROL FOR STRESS PERIOD   49   TIME STEP   20
 
 SOLVING FOR HEAD 
                                                   Max.-Head-Change                         Max.-Flux-Residual
  Residual-Control   Outer-Iter.   Inner-Iter.     Column Row Layer    Maximum-Head-Change  Column Row Layer    Maximum-Flux-Residual          L2-NORM 
          0                 1           2             3    7     1       0.1630605048E-01       4    5    1         0.5781667768E+00      0.1761467281E+01
          0                 2           2             3    7     1      -0.1583427821E-02       4    5    1        -0.5781714566E-01      0.1710526963E+00
          0                 3           2             3    7     1       0.1079269292E-03       4    5    1         0.4047197509E-02      0.1191461867E-01
          0                 4           1             3    7     1      -0.4290758348E-05       4    5    1        -0.1655306255E-03      0.4872912478E-03

    ------------------------------------------------
       NWT REQUIRED            4 OUTER ITERATIONS 
       AND A TOTAL OF          7 INNER ITERATIONS.
    ------------------------------------------------

 NO OUTPUT CONTROL FOR STRESS PERIOD   49   TIME STEP   21
 
 SOLVING FOR HEAD 
                                                   Max.-Head-Change                         Max.-Flux-Residual
  Residual-Control   Outer-Iter.   Inner-Iter.     Column Row Layer    Maximum-Head-Change  Column Row Layer    Maximum-Flux-Residual          L2-NORM 
          0                 1           2             3    7     1       0.1606905686E-01       4    5    1         0.5586144349E+00      0.1731637703E+01
          0                 2           2             3    7     1      -0.1560279397E-02       4    5    1        -0.5586187389E-01      0.1680315874E+00
          0                 3           2             3    7     1       0.1063537065E-03       4    5    1         0.3910328776E-02      0.1170256454E-01
          0                 4           1             3    7     1      -0.4228057670E-05       4    5    1        -0.1599326993E-03      0.4786183934E-03

    ------------------------------------------------
       NWT REQUIRED            4 OUTER ITERATIONS 
       AND A TOTAL OF          7 INNER ITERATIONS.
    ------------------------------------------------

 NO OUTPUT CONTROL FOR STRESS PERIOD   49   TIME STEP   22
 
 SOLVING FOR HEAD 
                                                   Max.-Head-Change                         Max.-Flux-Residual
  Residual-Control   Outer-Iter.   Inner-Iter.     Column Row Layer    Maximum-Head-Change  Column Row Layer    Maximum-Flux-Residual          L2-NORM 
          0                 1           2             3    7     1       0.1583687091E-01       4    5    1         0.5401310156E+00      0.1703414404E+01
          0                 2           2             3    7     1      -0.1537597131E-02       4    5    1        -0.5401349769E-01      0.1651707606E+00
          0                 3           2             3    7     1       0.1048122782E-03       4    5    1         0.3780942732E-02      0.1150173165E-01
          0                 4           1             3    7     1      -0.4166620977E-05       4    5    1        -0.1546407902E-03      0.4705715574E-03

    ------------------------------------------------
       NWT REQUIRED            4 OUTER ITERATIONS 
       AND A TOTAL OF          7 INNER ITERATIONS.
    ------------------------------------------------

 NO OUTPUT CONTROL FOR STRESS PERIOD   49   TIME STEP   23
 
 SOLVING FOR HEAD 
                                                   Max.-Head-Change                         Max.-Flux-Residual
  Residual-Control   Outer-Iter.   Inner-Iter.     Column Row Layer    Maximum-Head-Change  Column Row Layer    Maximum-Flux-Residual          L2-NORM 
          0                 1           2             3    7     1       0.1560965645E-01       4    5    1         0.5226521069E+00      0.1676685301E+01
          0                 2           2             3    7     1      -0.1515397467E-02       4    5    1        -0.5226557558E-01      0.1624588608E+00
          0                 3           1             3    7     1       0.1033039574E-03       4    5    1         0.3658588403E-02      0.1131107866E-01
          0                 4           1             3    7     1      -0.4106704429E-05       4    5    1        -0.1496454747E-03      0.4626057449E-03

    ------------------------------------------------
       NWT REQUIRED            4 OUTER ITERATIONS 
       AND A TOTAL OF          6 INNER ITERATIONS.
    ------------------------------------------------

 NO OUTPUT CONTROL FOR STRESS PERIOD   49   TIME STEP   24
 
 SOLVING FOR HEAD 
                                                   Max.-Head-Change                         Max.-Flux-Residual
  Residual-Control   Outer-Iter.   Inner-Iter.     Column Row Layer    Maximum-Head-Change  Column Row Layer    Maximum-Flux-Residual          L2-NORM 
          0                 1           2             3    7     1       0.1538733173E-01       4    5    1         0.5061173348E+00      0.1651360532E+01
          0                 2           2             3    7     1      -0.1493672735E-02       4    5    1        -0.5061206984E-01      0.1598872709E+00
          0                 3           1             3    7     1       0.1018277941E-03       4    5    1         0.3542843223E-02      0.1113069364E-01
          0                 4           1             3    7     1      -0.4047864094E-05       4    5    1        -0.1449115116E-03      0.4552081045E-03

    ------------------------------------------------
       NWT REQUIRED            4 OUTER ITERATIONS 
       AND A TOTAL OF          6 INNER ITERATIONS.
    ------------------------------------------------

 NO OUTPUT CONTROL FOR STRESS PERIOD   49   TIME STEP   25
 
 SOLVING FOR HEAD 
                                                   Max.-Head-Change                         Max.-Flux-Residual
  Residual-Control   Outer-Iter.   Inner-Iter.     Column Row Layer    Maximum-Head-Change  Column Row Layer    Maximum-Flux-Residual          L2-NORM 
          0                 1           2             3    7     1       0.1516956415E-01       4    5    1         0.4904774965E+00      0.1627342747E+01
          0                 2           2             3    7     1      -0.1472269241E-02       4    5    1        -0.4904805997E-01      0.1539596680E+00
          0                 3           1             3    7     1       0.1003873562E-03       4    5    1         0.3433362746E-02      0.1071036214E-01
          0                 4           1             3    7     1      -0.3989640728E-05       4    5    1        -0.1404289005E-03      0.4380460454E-03

    ------------------------------------------------
       NWT REQUIRED            4 OUTER ITERATIONS 
       AND A TOTAL OF          6 INNER ITERATIONS.
    ------------------------------------------------

 NO OUTPUT CONTROL FOR STRESS PERIOD   49   TIME STEP   26
 
 SOLVING FOR HEAD 
                                                   Max.-Head-Change                         Max.-Flux-Residual
  Residual-Control   Outer-Iter.   Inner-Iter.     Column Row Layer    Maximum-Head-Change  Column Row Layer    Maximum-Flux-Residual          L2-NORM 
          0                 1           2             3    7     1       0.1495675692E-01       4    5    1         0.4756718262E+00      0.1494132414E+01
          0                 2           2             3    7     1      -0.1451435528E-02       4    5    1        -0.4756747004E-01      0.1402574121E+00
          0                 3           1             3    7     1       0.9897794134E-04       4    5    1         0.3329721602E-02      0.9715609324E-02

    ------------------------------------------------
       NWT REQUIRED            3 OUTER ITERATIONS 
       AND A TOTAL OF          5 INNER ITERATIONS.
    ------------------------------------------------

 NO OUTPUT CONTROL FOR STRESS PERIOD   49   TIME STEP   27
 
 SOLVING FOR HEAD 
                                                   Max.-Head-Change                         Max.-Flux-Residual
  Residual-Control   Outer-Iter.   Inner-Iter.     Column Row Layer    Maximum-Head-Change  Column Row Layer    Maximum-Flux-Residual          L2-NORM 
          0                 1           2             3    7     1       0.1474864518E-01       6    7    1         0.4738340647E+00      0.1586126709E+01
          0                 2           2             3    7     1      -0.1431082608E-02       6    7    1        -0.4738358555E-01      0.1502837311E+00
          0                 3           1             3    7     1       0.9759548850E-04       6    7    1         0.3320756753E-02      0.1042661340E-01

    ------------------------------------------------
       NWT REQUIRED            3 OUTER ITERATIONS 
       AND A TOTAL OF          5 INNER ITERATIONS.
    ------------------------------------------------

 NO OUTPUT CONTROL FOR STRESS PERIOD   49   TIME STEP   28
 
 SOLVING FOR HEAD 
                                                   Max.-Head-Change                         Max.-Flux-Residual
  Residual-Control   Outer-Iter.   Inner-Iter.     Column Row Layer    Maximum-Head-Change  Column Row Layer    Maximum-Flux-Residual          L2-NORM 
          0                 1           2             3    7     1       0.1454517753E-01       6    7    1         0.4649706821E+00      0.1565345454E+01
          0                 2           2             3    7     1      -0.1411183385E-02       6    7    1        -0.4649723876E-01      0.1481285519E+00
          0                 3           1             3    7     1       0.9624386934E-04       6    7    1         0.3258715365E-02      0.1027484756E-01

    ------------------------------------------------
       NWT REQUIRED            3 OUTER ITERATIONS 
       AND A TOTAL OF          5 INNER ITERATIONS.
    ------------------------------------------------

 NO OUTPUT CONTROL FOR STRESS PERIOD   49   TIME STEP   29
 
 SOLVING FOR HEAD 
                                                   Max.-Head-Change                         Max.-Flux-Residual
  Residual-Control   Outer-Iter.   Inner-Iter.     Column Row Layer    Maximum-Head-Change  Column Row Layer    Maximum-Flux-Residual          L2-NORM 
          0                 1           2             3    7     1       0.1434600068E-01       6    7    1         0.4564159875E+00      0.1545569414E+01
          0                 2           2             3    7     1      -0.1391703792E-02       6    7    1        -0.4564176123E-01      0.1460758797E+00
          0                 3           1             3    7     1       0.9492075381E-04       6    7    1         0.3198835061E-02      0.1013027395E-01

    ------------------------------------------------
       NWT REQUIRED            3 OUTER ITERATIONS 
       AND A TOTAL OF          5 INNER ITERATIONS.
    ------------------------------------------------

 NO OUTPUT CONTROL FOR STRESS PERIOD   49   TIME STEP   30



 STREAM LISTING     PERIOD     49   STEP       30

 LAYER ROW COL. STREAM  RCH.  FLOW INTO     FLOW TO   FLOW OUT OF   OVRLND.     DIRECT     STREAM       STREAM     STREAM     STREAM   STREAMBED  STREAMBED
                SEG.NO.  NO.  STRM. RCH.    AQUIFER    STRM. RCH.    RUNOFF     PRECIP       ET          HEAD       DEPTH      WIDTH   CONDCTNC.   GRADIENT

   1    1    1     1     1    7.1250E+00  1.2038E-01   7.0046E+00  0.000E+00  0.000E+00  0.000E+00  1.09385E+03  8.024E-01  7.035E+00  3.166E-02  1.267E+00
   1    2    2     1     2    7.0046E+00  1.8492E-01   6.8197E+00  0.000E+00  0.000E+00  0.000E+00  1.08886E+03  7.976E-01  6.956E+00  4.869E-02  1.266E+00
   1    3    3     1     3    6.8197E+00  1.5635E-01   6.6634E+00  0.000E+00  0.000E+00  0.000E+00  1.08321E+03  7.929E-01  6.870E+00  4.122E-02  1.264E+00
   1    3    4     1     4    6.6634E+00  1.4286E-01   6.5205E+00  0.000E+00  0.000E+00  0.000E+00  1.07820E+03  7.886E-01  6.794E+00  3.771E-02  1.263E+00
   1    4    5     2     1    4.5205E+00  2.6715E-01   4.2533E+00  0.000E+00  0.000E+00  0.000E+00  1.07236E+03  4.251E-01  1.200E+01  7.800E-02  1.142E+00
   1    5    6     2     2    4.2533E+00  2.0467E-01   4.0487E+00  0.000E+00  0.000E+00  0.000E+00  1.06692E+03  4.112E-01  1.200E+01  6.000E-02  1.137E+00
   1    6    6     2     3    4.0487E+00  2.0394E-01   3.8447E+00  0.000E+00  0.000E+00  0.000E+00  1.06219E+03  3.989E-01  1.200E+01  6.000E-02  1.133E+00
   1    7    6     2     4    3.8447E+00  2.0319E-01   3.6416E+00  0.000E+00  0.000E+00  0.000E+00  1.05746E+03  3.864E-01  1.200E+01  6.000E-02  1.129E+00
   1    8    6     2     5    3.6416E+00  2.0242E-01   3.4391E+00  0.000E+00  0.000E+00  0.000E+00  1.05273E+03  3.737E-01  1.200E+01  6.000E-02  1.125E+00
   1    3    5     3     1    2.0000E+00  2.8252E-01   1.7175E+00  0.000E+00  0.000E+00  0.000E+00  1.07555E+03  1.909E+00  9.636E+00  7.227E-02  1.955E+00
   1    3    6     3     2    1.7175E+00  2.4905E-01   1.4684E+00  0.000E+00  0.000E+00  0.000E+00  1.07264E+03  1.727E+00  8.909E+00  6.682E-02  1.864E+00
   1    3    7     3     3    1.4684E+00  1.9718E-01   1.2712E+00  0.000E+00  0.000E+00  0.000E+00  1.06987E+03  1.555E+00  8.218E+00  5.547E-02  1.777E+00
   1    4    8     3     4    1.2712E+00  2.2567E-01   1.0456E+00  0.000E+00  0.000E+00  0.000E+00  1.06682E+03  1.364E+00  7.455E+00  6.709E-02  1.682E+00
   1    5    8     3     5    1.0456E+00  1.5790E-01   8.8768E-01  0.000E+00  0.000E+00  0.000E+00  1.06362E+03  1.164E+00  6.655E+00  4.991E-02  1.582E+00
   1    6    8     3     6    8.8768E-01  5.5980E-02   8.3170E-01  0.000E+00  0.000E+00  0.000E+00  1.06158E+03  1.036E+00  6.145E+00  1.844E-02  1.518E+00
   1    5   10     4     1    1.0000E+01  9.0919E-02   9.9091E+00  0.000E+00  0.000E+00  0.000E+00  1.07836E+03  6.368E-01  1.000E+01  2.500E-02  1.212E+00
   1    5    9     4     2    9.9091E+00  1.8158E-01   9.7275E+00  0.000E+00  0.000E+00  0.000E+00  1.07154E+03  6.315E-01  1.000E+01  5.000E-02  1.211E+00
   1    6    8     4     3    9.7275E+00  1.2689E-01   9.6006E+00  0.000E+00  0.000E+00  0.000E+00  1.06381E+03  6.256E-01  1.000E+01  3.500E-02  1.209E+00
   1    6    8     5     1    1.0432E+01  2.2686E-01   1.0205E+01  0.000E+00  0.000E+00  0.000E+00  1.05868E+03  6.790E-01  1.542E+01  6.166E-02  1.226E+00
   1    7    7     5     2    1.0205E+01  2.7894E-01   9.9265E+00  0.000E+00  0.000E+00  0.000E+00  1.05417E+03  6.732E-01  1.519E+01  7.594E-02  1.224E+00
   1    8    7     5     3    9.9265E+00  1.9221E-01   9.7343E+00  0.000E+00  0.000E+00  0.000E+00  1.04992E+03  6.676E-01  1.497E+01  5.241E-02  1.223E+00
   1    8    6     5     4    9.7343E+00  1.3577E-01   9.5985E+00  0.000E+00  0.000E+00  0.000E+00  1.04691E+03  6.637E-01  1.482E+01  3.706E-02  1.221E+00
   1    9    6     6     1    1.3038E+01  2.2931E-01   1.2808E+01  0.000E+00  0.000E+00  0.000E+00  1.04355E+03  8.218E-01  1.200E+01  6.000E-02  1.274E+00
   1   10    7     6     2    1.2808E+01  2.2878E-01   1.2580E+01  0.000E+00  0.000E+00  0.000E+00  1.03899E+03  8.131E-01  1.200E+01  6.000E-02  1.271E+00
   1   11    7     6     3    1.2580E+01  2.2826E-01   1.2351E+01  0.000E+00  0.000E+00  0.000E+00  1.03444E+03  8.043E-01  1.200E+01  6.000E-02  1.268E+00
   1   12    7     6     4    1.2351E+01  2.2772E-01   1.2124E+01  0.000E+00  0.000E+00  0.000E+00  1.02989E+03  7.954E-01  1.200E+01  6.000E-02  1.265E+00
   1   13    7     6     5    1.2124E+01  5.7994E-03   1.2118E+01  0.000E+00  0.000E+00  0.000E+00  1.02670E+03  7.908E-01  1.200E+01  2.400E-02  8.055E-02
   1   14    9     7     1    1.5000E+02  1.4053E+00   1.4859E+02  0.000E+00  0.000E+00  0.000E+00  1.03987E+03  2.288E+00  5.529E+01  5.593E-01  8.375E-01
   1   13    8     7     2    1.4859E+02  2.0393E+00   1.4656E+02  0.000E+00  0.000E+00  0.000E+00  1.03478E+03  2.278E+00  5.525E+01  6.147E-01  1.106E+00
   1   13    7     7     3    1.4656E+02  1.8030E+00   1.4475E+02  0.000E+00  0.000E+00  0.000E+00  1.02969E+03  2.268E+00  5.521E+01  5.583E-01  1.076E+00
   1   13    6     8     1    1.5687E+02  1.1707E+00   1.5570E+02  0.000E+00  0.000E+00  0.000E+00  1.02474E+03  2.861E+00  4.148E+01  4.227E-01  9.233E-01
   1   13    5     8     2    1.5570E+02  4.1670E-01   1.5528E+02  0.000E+00  0.000E+00  0.000E+00  1.01848E+03  2.855E+00  4.140E+01  4.219E-01  3.293E-01
   1   13    4     8     3    1.5528E+02 -1.5945E+00   1.5688E+02  0.000E+00  0.000E+00  0.000E+00  1.01223E+03  2.859E+00  4.146E+01  4.225E+00 -1.258E-01
   1   13    3     8     4    1.5688E+02 -3.2312E+00   1.6011E+02  0.000E+00  0.000E+00  0.000E+00  1.00600E+03  2.876E+00  4.170E+01  4.249E+00 -2.535E-01
   1   13    2     8     5    1.6011E+02 -2.4748E+00   1.6258E+02  0.000E+00  0.000E+00  0.000E+00  9.99770E+02  2.895E+00  4.198E+01  4.278E+00 -1.929E-01
   1   13    1     8     6    1.6258E+02 -1.9549E+00   1.6454E+02  0.000E+00  0.000E+00  0.000E+00  9.94785E+02  2.910E+00  4.219E+01  2.580E+00 -2.526E-01
   1    8    6     9     1    0.0000E+00  0.0000E+00   0.0000E+00  0.000E+00  0.000E+00  0.000E+00  1.07875E+03  0.000E+00  4.000E+00  0.000E+00  1.000E+00
   1    8    5     9     2    0.0000E+00  0.0000E+00   0.0000E+00  0.000E+00  0.000E+00  0.000E+00  1.07825E+03  0.000E+00  4.000E+00  0.000E+00  1.000E+00





UNSATURATED ZONE PACKAGE VOLUMETRIC BUDGET FOR  TIME STEP    30 STRESS PERIOD   49
  ------------------------------------------------------------------------------



     CUMULATIVE VOLUMES      L**3       RATES FOR THIS TIME STEP      L**3/T
     ------------------                 ------------------------

           IN:                                      IN:
           ---                                      ---
        INFILTRATION =  2474750070.5166          INFILTRATION =           4.4075

          OUT:                                     OUT:
          ----                                     ----
              UZF ET =  1988086419.1683                UZF ET =           0.7250
        UZF RECHARGE =   147189430.9863          UZF RECHARGE =           0.1573

            IN - OUT =   339474220.3620              IN - OUT =           3.5252

          STORAGE:                                 STORAGE:
          --------                                 --------
      STORAGE CHANGE =   339474175.5630        STORAGE CHANGE =           3.5252

 PERCENT DISCREPANCY IS DIFFERENCE BETWEEN IN-OUT MINUS CHANGE IN STORAGE
 DIVIDED BY THE AVERAGE OF IN AND OUT TIMES 100

 PERCENT DISCREPANCY =           0.00     PERCENT DISCREPANCY =           0.00






1
  VOLUMETRIC BUDGET FOR AGRICULTURAL FIELDS AT  END OF TIME STEP   30, STRESS PERIOD  49
  ------------------------------------------------------------------------------

     CUMULATIVE VOLUMES      L**3       RATES FOR THIS TIME STEP      L**3/T
     ------------------                 ------------------------

           IN:                                      IN:
           ---                                      ---
               AG WELLS  =  1211364864.0000                 AG WELLS  =           0.0000
      DIVERSION SEGMENTS =   707465664.0000        DIVERSION SEGMENTS =           0.0000
           GW IRRIGATION =           0.0000             GW IRRIGATION =           0.0000
           SW IRRIGATION =           0.0000             SW IRRIGATION =           0.0000
        SYSTEM LOSSES GW =           0.0000          SYSTEM LOSSES GW =           0.0000
        SYSTEM LOSSES SW =           0.0000          SYSTEM LOSSES SW =           0.0000

                TOTAL IN =  1918830592.0000                  TOTAL IN =           0.0000

          OUT:                                     OUT:
          ----                                     ----
               AG WELLS  =           0.0000                 AG WELLS  =           0.0000
      DIVERSION SEGMENTS =           0.0000        DIVERSION SEGMENTS =           0.0000
           GW IRRIGATION =  1211364864.0000             GW IRRIGATION =           0.0000
           SW IRRIGATION =   707479104.0000             SW IRRIGATION =           0.0000
        SYSTEM LOSSES GW =           0.0000          SYSTEM LOSSES GW =           0.0000
        SYSTEM LOSSES SW =           0.0000          SYSTEM LOSSES SW =           0.0000

               TOTAL OUT =  1918843904.0000                 TOTAL OUT =           0.0000

                IN - OUT =      -13312.0000                  IN - OUT =           0.0000

     PERCENT DISCREPANCY =          -0.00         PERCENT DISCREPANCY =           0.00



1
  VOLUMETRIC BUDGET FOR ENTIRE MODEL AT END OF TIME STEP   30, STRESS PERIOD  49
  ------------------------------------------------------------------------------

     CUMULATIVE VOLUMES      L**3       RATES FOR THIS TIME STEP      L**3/T
     ------------------                 ------------------------

           IN:                                      IN:
           ---                                      ---
             STORAGE     =  1777252224.0000               STORAGE     =           4.0478
       CONSTANT HEAD     =           0.0000         CONSTANT HEAD     =           0.0000
     HEAD DEP BOUNDS     =    36485640.0000       HEAD DEP BOUNDS     =           0.2905
      STREAM LEAKAGE     =  1512164992.0000        STREAM LEAKAGE     =          11.8422
        UZF RECHARGE     =   147189488.0000          UZF RECHARGE     =           0.1573
               GW ET     =           0.0000                 GW ET     =           0.0000
     SURFACE LEAKAGE     =           0.0000       SURFACE LEAKAGE     =           0.0000
           AG WELLS      =           0.0000             AG WELLS      =           0.0000

                TOTAL IN =  3473092352.0000                  TOTAL IN =          16.3377

          OUT:                                     OUT:
          ----                                     ----
             STORAGE     =   982558848.0000               STORAGE     =           6.7960
       CONSTANT HEAD     =           0.0000         CONSTANT HEAD     =           0.0000
     HEAD DEP BOUNDS     =    36347340.0000       HEAD DEP BOUNDS     =           0.2866
      STREAM LEAKAGE     =  1242820224.0000        STREAM LEAKAGE     =           9.2555
        UZF RECHARGE     =           0.0000          UZF RECHARGE     =           0.0000
               GW ET     =           0.0000                 GW ET     =           0.0000
     SURFACE LEAKAGE     =           0.0000       SURFACE LEAKAGE     =           0.0000
           AG WELLS      =  1211364864.0000             AG WELLS      =           0.0000

               TOTAL OUT =  3473091328.0000                 TOTAL OUT =          16.3381

                IN - OUT =        1024.0000                  IN - OUT =      -3.6812E-04

     PERCENT DISCREPANCY =           0.00         PERCENT DISCREPANCY =          -0.00






         TIME SUMMARY AT END OF TIME STEP   30 IN STRESS PERIOD   49
                    SECONDS     MINUTES      HOURS       DAYS        YEARS
                    -----------------------------------------------------------
   TIME STEP LENGTH  87667.      1461.1      24.352      1.0147     2.77799E-03
 STRESS PERIOD TIME 2.63000E+06  43833.      730.56      30.440     8.33397E-02
         TOTAL TIME 1.26325E+08 2.10542E+06  35090.      1462.1      4.0030    
1


 Run end date and time (yyyy/mm/dd hh:mm:ss): 2020/10/06 10:18:19
 Elapsed run time:  4.490 Seconds

