                                  MODFLOW-NWT-SWR1 
      U.S. GEOLOGICAL SURVEY MODULAR FINITE-DIFFERENCE GROUNDWATER-FLOW MODEL
                            VERSION 1.2.0 03/01/2020
                    BASED ON MODFLOW-2005 VERSION 1.12.00 02/03/2017

 LIST FILE: ./output/Agwater1_low.lst
                         UNIT    9

 OPENING ./input/Agwater1.ba6
 FILE TYPE:BAS6   UNIT   75   STATUS:OLD    
 FORMAT:FORMATTED              ACCESS:SEQUENTIAL          

 OPENING ./input/Agwater1.upw
 FILE TYPE:UPW   UNIT    7   STATUS:OLD    
 FORMAT:FORMATTED              ACCESS:SEQUENTIAL          

 OPENING ./input/Agwater1.dis
 FILE TYPE:DIS   UNIT    8   STATUS:OLD    
 FORMAT:FORMATTED              ACCESS:SEQUENTIAL          

 OPENING ./input/Agwater1.nwt
 FILE TYPE:NWT   UNIT   13   STATUS:OLD    
 FORMAT:FORMATTED              ACCESS:SEQUENTIAL          

 OPENING ./input/Agwater1.oc
 FILE TYPE:OC   UNIT   14   STATUS:OLD    
 FORMAT:FORMATTED              ACCESS:SEQUENTIAL          

 OPENING ./input/Agwater1.sfr
 FILE TYPE:SFR   UNIT   15   STATUS:OLD    
 FORMAT:FORMATTED              ACCESS:SEQUENTIAL          

 OPENING ./input/Agwater1.ghb
 FILE TYPE:GHB   UNIT   17   STATUS:OLD    
 FORMAT:FORMATTED              ACCESS:SEQUENTIAL          

 OPENING ./input/Agwater1.uzf
 FILE TYPE:UZF   UNIT   19   STATUS:OLD    
 FORMAT:FORMATTED              ACCESS:SEQUENTIAL          

 OPENING ./input/Agwater1.gag
 FILE TYPE:GAGE   UNIT   32   STATUS:OLD    
 FORMAT:FORMATTED              ACCESS:SEQUENTIAL          

 OPENING ./input/seg1_low.tab
 FILE TYPE:DATA   UNIT   55   STATUS:UNKNOWN
 FORMAT:FORMATTED              ACCESS:SEQUENTIAL          

 OPENING ./input/seg9.tab
 FILE TYPE:DATA   UNIT   56   STATUS:UNKNOWN
 FORMAT:FORMATTED              ACCESS:SEQUENTIAL          

 OPENING ./input/Agwater1.ag
 FILE TYPE:AG   UNIT   57   STATUS:OLD    
 FORMAT:FORMATTED              ACCESS:SEQUENTIAL          

 OPENING ./output/Agwater1_low.hed
 FILE TYPE:DATA   UNIT   62   STATUS:UNKNOWN
 FORMAT:FORMATTED              ACCESS:SEQUENTIAL          

 OPENING ./output/Agwater1gw_low.ts5
 FILE TYPE:DATA   UNIT  105   STATUS:UNKNOWN
 FORMAT:FORMATTED              ACCESS:SEQUENTIAL          

 OPENING ./output/Agwater1SW_low.ts9
 FILE TYPE:DATA   UNIT  107   STATUS:UNKNOWN
 FORMAT:FORMATTED              ACCESS:SEQUENTIAL          

 OPENING ./output/Agwater1SW_ET_low.ts9
 FILE TYPE:DATA   UNIT  108   STATUS:UNKNOWN
 FORMAT:FORMATTED              ACCESS:SEQUENTIAL          

 OPENING ./output/Agwater1_low.uzfot
 FILE TYPE:DATA(BINARY)   UNIT   61   STATUS:UNKNOWN
 FORMAT:BINARY                 ACCESS:SEQUENTIAL          

 OPENING ./output/Agwater1cbc_low.unf
 FILE TYPE:DATA(BINARY)   UNIT  102   STATUS:UNKNOWN
 FORMAT:BINARY                 ACCESS:SEQUENTIAL          

 OPENING ./output/Agwater1_low.uzf1
 FILE TYPE:DATA   UNIT   65   STATUS:UNKNOWN
 FORMAT:FORMATTED              ACCESS:SEQUENTIAL          

 OPENING ./output/Agwater1_low.uzf2
 FILE TYPE:DATA   UNIT   66   STATUS:UNKNOWN
 FORMAT:FORMATTED              ACCESS:SEQUENTIAL          

 OPENING ./output/Agwater1_low.uzf3
 FILE TYPE:DATA   UNIT   67   STATUS:UNKNOWN
 FORMAT:FORMATTED              ACCESS:SEQUENTIAL          

 OPENING ./output/Agwater1_low.uzf4
 FILE TYPE:DATA   UNIT   68   STATUS:UNKNOWN
 FORMAT:FORMATTED              ACCESS:SEQUENTIAL          

 OPENING ./output/Agwater1_low.flw
 FILE TYPE:DATA   UNIT   81   STATUS:UNKNOWN
 FORMAT:FORMATTED              ACCESS:SEQUENTIAL          

 OPENING ./output/Agwater1_low.sg1
 FILE TYPE:DATA   UNIT   83   STATUS:UNKNOWN
 FORMAT:FORMATTED              ACCESS:SEQUENTIAL          

 OPENING ./output/Agwater1_low.sg2
 FILE TYPE:DATA   UNIT   84   STATUS:UNKNOWN
 FORMAT:FORMATTED              ACCESS:SEQUENTIAL          

 OPENING ./output/Agwater1_low.sg3
 FILE TYPE:DATA   UNIT   85   STATUS:UNKNOWN
 FORMAT:FORMATTED              ACCESS:SEQUENTIAL          

 OPENING ./output/Agwater1_low.sg4
 FILE TYPE:DATA   UNIT   86   STATUS:UNKNOWN
 FORMAT:FORMATTED              ACCESS:SEQUENTIAL          

 OPENING ./output/Agwater1_low.sg5
 FILE TYPE:DATA   UNIT   87   STATUS:UNKNOWN
 FORMAT:FORMATTED              ACCESS:SEQUENTIAL          

 OPENING ./output/Agwater1_low.sg6
 FILE TYPE:DATA   UNIT   88   STATUS:UNKNOWN
 FORMAT:FORMATTED              ACCESS:SEQUENTIAL          

 OPENING ./output/Agwater1_low.sg7
 FILE TYPE:DATA   UNIT   89   STATUS:UNKNOWN
 FORMAT:FORMATTED              ACCESS:SEQUENTIAL          

 OPENING ./output/Agwater1_low.sg8
 FILE TYPE:DATA   UNIT   90   STATUS:UNKNOWN
 FORMAT:FORMATTED              ACCESS:SEQUENTIAL          

 OPENING ./output/Agwater1_low.sg9
 FILE TYPE:DATA   UNIT   91   STATUS:UNKNOWN
 FORMAT:FORMATTED              ACCESS:SEQUENTIAL          

 BAS -- BASIC PACKAGE, VERSION 1.1.4, 4/01/2018 INPUT READ FROM UNIT   75
 
 MODFLOW was compiled using mixed precision
 Precision of REAL variables:           6
 Precision of DOUBLE PRECISION variables:          15

 DISCRETIZATION INPUT DATA READ FROM UNIT    8
 #Test problem 2-- Discretization input
 #Example problem using the UZF1 Package
    1 LAYERS        15 ROWS        10 COLUMNS
   49 STRESS PERIOD(S) IN SIMULATION
 MODEL TIME UNIT IS SECONDS
 MODEL LENGTH UNIT IS FEET
  Confining bed flag for each layer:
   0

                     DELR =   5000.00    

                     DELC =   5000.00    



           TOP ELEVATION OF LAYER 1
 READING ON UNIT    8 WITH FORMAT: (10F7.0)            

            1           2           3           4           5           6           7           8           9          10
 ........................................................................................................................
   1    1105.       1105.       0.000       0.000       0.000       0.000       0.000       0.000       0.000       0.000    
   2    1105.       1095.       1105.       0.000       0.000       1100.       1100.       1110.       0.000       0.000    
   3    0.000       1100.       1085.       1080.       1078.       1076.       1073.       1090.       0.000       0.000    
   4    1110.       1100.       1090.       1085.       1076.       1080.       1080.       1070.       1100.       0.000    
   5    1110.       1100.       1085.       1080.       1078.       1074.       1077.       1066.       1075.       1080.    
   6    1105.       1095.       1080.       1077.       1073.       1069.       1070.       1063.       1085.       1095.    
   7    1105.       1090.       1075.       1072.       1070.       1065.       1065.       1069.       1090.       0.000    
   8    0.000       1080.       1070.       1068.       1063.       1060.       1063.       1067.       1090.       0.000    
   9    0.000       1075.       1065.       1062.       1058.       1052.       1055.       1065.       1090.       0.000    
  10    0.000       1070.       1060.       1055.       1046.       1046.       1044.       1060.       1088.       1100.    
  11    0.000       1055.       1050.       1045.       1041.       1042.       1040.       1050.       1075.       0.000    
  12    1027.       1028.       1028.       1032.       1032.       1033.       1032.       1040.       1060.       0.000    
  13    997.0       1004.       1008.       1014.       1020.       1027.       1032.       1038.       1050.       0.000    
  14    0.000       1030.       1040.       1045.       1050.       1050.       1050.       1050.       1044.       0.000    
  15    0.000       0.000       1080.       1080.       1080.       1080.       0.000       0.000       0.000       0.000    



             MODEL LAYER BOTTOM EL. FOR LAYER   1
 READING ON UNIT    8 WITH FORMAT: (10F7.0)            

            1           2           3           4           5           6           7           8           9          10
 ........................................................................................................................
   1    1000.       1000.       0.000       0.000       0.000       0.000       0.000       0.000       0.000       0.000    
   2    1000.       900.0       900.0       0.000       0.000       950.0       950.0       950.0       0.000       0.000    
   3    0.000       850.0       670.0       680.0       680.0       770.0       770.0       890.0       0.000       0.000    
   4    925.0       850.0       650.0       650.0       650.0       680.0       740.0       850.0       950.0       0.000    
   5    925.0       800.0       650.0       600.0       600.0       600.0       650.0       720.0       850.0       950.0    
   6    925.0       800.0       650.0       600.0       550.0       600.0       650.0       720.0       850.0       970.0    
   7    925.0       800.0       650.0       600.0       550.0       600.0       650.0       720.0       950.0       0.000    
   8    0.000       850.0       700.0       650.0       570.0       600.0       700.0       850.0       950.0       0.000    
   9    0.000       850.0       700.0       650.0       540.0       580.0       700.0       850.0       950.0       0.000    
  10    0.000       850.0       700.0       630.0       530.0       580.0       650.0       800.0       900.0       950.0    
  11    0.000       850.0       700.0       620.0       580.0       620.0       700.0       800.0       900.0       0.000    
  12    900.0       830.0       710.0       640.0       600.0       650.0       700.0       800.0       900.0       0.000    
  13    900.0       810.0       750.0       700.0       650.0       700.0       750.0       800.0       900.0       0.000    
  14    0.000       950.0       850.0       850.0       850.0       850.0       850.0       850.0       850.0       0.000    
  15    0.000       0.000       950.0       950.0       950.0       950.0       0.000       0.000       0.000       0.000    


 STRESS PERIOD     LENGTH       TIME STEPS     MULTIPLIER FOR DELT    SS FLAG
 ----------------------------------------------------------------------------
        1         86400.00          1                    1.000         SS
        2         2630000.         30                    1.000         TR
        3         2630000.         30                    1.000         TR
        4         2630000.         30                    1.000         TR
        5         2630000.         30                    1.000         TR
        6         2630000.         30                    1.000         TR
        7         2630000.         30                    1.000         TR
        8         2630000.         30                    1.000         TR
        9         2630000.         30                    1.000         TR
       10         2630000.         30                    1.000         TR
       11         2630000.         30                    1.000         TR
       12         2630000.         30                    1.000         TR
       13         2630000.         30                    1.000         TR
       14         2630000.         30                    1.000         TR
       15         2630000.         30                    1.000         TR
       16         2630000.         30                    1.000         TR
       17         2630000.         30                    1.000         TR
       18         2630000.         30                    1.000         TR
       19         2630000.         30                    1.000         TR
       20         2630000.         30                    1.000         TR
       21         2630000.         30                    1.000         TR
       22         2630000.         30                    1.000         TR
       23         2630000.         30                    1.000         TR
       24         2630000.         30                    1.000         TR
       25         2630000.         30                    1.000         TR
       26         2630000.         30                    1.000         TR
       27         2630000.         30                    1.000         TR
       28         2630000.         30                    1.000         TR
       29         2630000.         30                    1.000         TR
       30         2630000.         30                    1.000         TR
       31         2630000.         30                    1.000         TR
       32         2630000.         30                    1.000         TR
       33         2630000.         30                    1.000         TR
       34         2630000.         30                    1.000         TR
       35         2630000.         30                    1.000         TR
       36         2630000.         30                    1.000         TR
       37         2630000.         30                    1.000         TR
       38         2630000.         30                    1.000         TR
       39         2630000.         30                    1.000         TR
       40         2630000.         30                    1.000         TR
       41         2630000.         30                    1.000         TR
       42         2630000.         30                    1.000         TR
       43         2630000.         30                    1.000         TR
       44         2630000.         30                    1.000         TR
       45         2630000.         30                    1.000         TR
       46         2630000.         30                    1.000         TR
       47         2630000.         30                    1.000         TR
       48         2630000.         30                    1.000         TR
       49         2630000.         30                    1.000         TR

 COMBINED STEADY-STATE AND TRANSIENT SIMULATION



 
 #Test Simulation 2-- Example problem using the UZF1 Package                     
 #Modified from example Problem 1 of SFR1 documentation report                   
 THE FREE FORMAT OPTION HAS BEEN SELECTED



                     BOUNDARY ARRAY FOR LAYER   1
 READING ON UNIT   75 WITH FORMAT: (20I4)              

                1           2           3           4           5           6           7           8           9          10
 ............................................................................................................................
   1            1           1           0           0           0           0           0           0           0           0
   2            1           1           1           0           0           1           1           1           0           0
   3            0           1           1           1           1           1           1           1           0           0
   4            1           1           1           1           1           1           1           1           1           0
   5            1           1           1           1           1           1           1           1           1           1
   6            1           1           1           1           1           1           1           1           1           1
   7            1           1           1           1           1           1           1           1           1           0
   8            0           1           1           1           1           1           1           1           1           0
   9            0           1           1           1           1           1           1           1           1           0
  10            0           1           1           1           1           1           1           1           1           1
  11            0           1           1           1           1           1           1           1           1           0
  12            1           1           1           1           1           1           1           1           1           0
  13            1           1           1           1           1           1           1           1           1           0
  14            0           1           1           1           1           1           1           1           1           0
  15            0           0           1           1           1           1           0           0           0           0

 AQUIFER HEAD WILL BE SET TO   6999.0     AT ALL NO-FLOW NODES (IBOUND=0).



                       INITIAL HEAD FOR LAYER   1
 READING ON UNIT   75 WITH FORMAT: (10F8.0)            

            1           2           3           4           5           6           7           8           9          10
 ........................................................................................................................
   1    1093.       1089.       6999.       6999.       6999.       6999.       6999.       6999.       6999.       6999.    
   2    1090.       1087.       1081.       6999.       6999.       1072.       1071.       1071.       6999.       6999.    
   3    6999.       1079.       1078.       1074.       1072.       1071.       1069.       1068.       6999.       6999.    
   4    1069.       1071.       1070.       1067.       1065.       1064.       1064.       1066.       1066.       6999.    
   5    1065.       1064.       1063.       1062.       1061.       1061.       1060.       1062.       1066.       1068.    
   6    1060.       1058.       1057.       1056.       1056.       1057.       1057.       1059.       1062.       1066.    
   7    1056.       1053.       1052.       1051.       1051.       1052.       1053.       1055.       1056.       6999.    
   8    6999.       1046.       1046.       1046.       1046.       1046.       1048.       1050.       1050.       6999.    
   9    6999.       1039.       1039.       1039.       1040.       1041.       1042.       1043.       1044.       6999.    
  10    6999.       1031.       1032.       1033.       1034.       1035.       1037.       1038.       1039.       1042.    
  11    6999.       1021.       1023.       1027.       1029.       1030.       1032.       1034.       1036.       6999.    
  12    1001.       1009.       1015.       1020.       1023.       1026.       1029.       1030.       1034.       6999.    
  13    994.5      1000.0       1007.       1013.       1019.       1024.       1029.       1034.       1036.       6999.    
  14    6999.       1004.       1009.       1014.       1019.       1024.       1029.       1035.       1039.       6999.    
  15    6999.       6999.       1012.       1015.       1019.       1022.       6999.       6999.       6999.       6999.    

 OUTPUT CONTROL IS SPECIFIED ONLY AT TIME STEPS FOR WHICH OUTPUT IS DESIRED
 HEADS WILL BE SAVED WITH FORMAT: (10F10.3)           
 SAVED HEADS WILL BE LABELED
 COMPACT CELL-BY-CELL BUDGET FILES WILL BE WRITTEN
 HEAD PRINT FORMAT CODE IS   4    DRAWDOWN PRINT FORMAT CODE IS   0
 HEADS WILL BE SAVED ON UNIT   62    DRAWDOWNS WILL BE SAVED ON UNIT    0
 # NWT Input File
 # Test Problem 3 for MODFLOW-NWT
 #HEADTOL  FLUXTOL MAXITEROUT THICKFACT LINMETH IPRNWT IBOTAV OPTIONS DBDREDUCE DBDINCREASE DBDGAMMA MOMFACT BACKFLAG MAXBACKITER BACKTOL BACKREDUCE

 NWT1 -- Newton Solver, VERSION 1.1.4, 4/01/2018
         INPUT READ FROM UNIT 13

 SPECIFIED OPTION:
 SOLVER INPUT VALUES ARE SPECIFIED BY USER
 ***XMD linear solver will be used***
 
   CONVERGENCE CRITERION OF   0.100000E-03 FOR HEAD SOLUTION
   AND A TOLERANCE OF   0.100000E+01 FOR FLOW SOLUTION AND 
   A MAXIMUM OF   500 OUTER ITERATIONS. 


   D-B-D REDUCTION FACTOR OF    0.970000E+00 AND 
   A D-B-D INCREASE FACTOR OF    0.100000E-04 AND 
   A D-B-D RELAXATION OF    0.000000E+00 AND 
   A MOMENTUM FACTOR OF    0.100000E+00 .


 ***BACKTRACKING IS INACTIVE***
 XMD -- LINEAR SOLUTION BY XMD PACKAGE VERSION 1.30
     BY MOTOMU IBARAKI, OHIO STATE UNIVERSITY, COLOMBUS, OH
                 INPUT READ FROM UNIT 13
 ACCELERATION METHOD                    (IACL) =         1
 NODE ORDERING FLAG                   (NORDER) =         0
 LEVEL OF FILL                         (LEVEL) =         7
 MAXIMUM NUMBER OF ORTHOGONALIZATIONS  (NORTH) =         7
 INDEX FOR USING REDUCED SYSTEM      (IREDSYS) =         1
 RESID. REDUCTION CONVERGE CRITERION  (RRCTOL) =  0.000000E+00
 INDEX FOR USING DROP TOLERANCE     (IDROPTOL) =         1
 DROP TOLERANCE VALUE                  (EPSRN) =  0.500000E-02
 CONVERGENCE CRITERIA OF           (HCLOSEXMD) =  0.100000E-03
 MAX. NUMBER OF LINEAR ITERATIONS  (MXITERXMD) =        50


 UPW1 -- UPSTREAM WEIGHTING FLOW PACKAGE, VERSION 1.1.4, 4/01/2018
         INPUT READ FROM UNIT  7

 #Layer-Property Flow Package input for test simulation 2
 CELL-BY-CELL FLOWS WILL BE SAVED ON UNIT  102
 No named parameters

   LAYER FLAGS:
 LAYER       LAYTYP          LAYAVG    CHANI           LAYVKA           LAYWET
 ---------------------------------------------------------------------------
    1             1             0     1.000E+00             0             0

   INTERPRETATION OF LAYER FLAGS:
                        INTERBLOCK     HORIZONTAL    DATA IN
         LAYER TYPE   TRANSMISSIVITY   ANISOTROPY   ARRAY VKA   WETTABILITY
 LAYER   (LAYTYP)        (LAYAVG)      (CHANI)     (LAYVKA)       (LAYWET)
 ---------------------------------------------------------------------------
    1   CONVERTIBLE      HARMONIC     1.000E+00    VERTICAL K  NON-WETTABLE



              HYD. COND. ALONG ROWS FOR LAYER   1
 READING ON UNIT    7 WITH FORMAT: (10F5.0)            

            1           2           3           4           5           6           7           8           9          10
 ........................................................................................................................
   1   2.0000E-03  2.0000E-03   0.000       0.000       0.000       0.000       0.000       0.000       0.000       0.000    
   2   4.0000E-04  2.0000E-03  2.0000E-03   0.000       0.000      4.0000E-04  4.0000E-04  4.0000E-04   0.000       0.000    
   3    0.000      4.0000E-04  2.0000E-03  2.0000E-03  4.0000E-04  4.0000E-04  4.0000E-04  4.0000E-04   0.000       0.000    
   4   4.0000E-04  4.0000E-04  4.0000E-04  2.0000E-03  2.0000E-03  2.0000E-03  4.0000E-04  4.0000E-04  4.0000E-04   0.000    
   5   4.0000E-04  4.0000E-04  4.0000E-04  2.0000E-03  2.0000E-03  2.0000E-03  2.0000E-03  2.0000E-03  2.0000E-03  2.0000E-03
   6   4.0000E-04  4.0000E-04  4.0000E-04  2.0000E-03  2.0000E-03  2.0000E-03  2.0000E-03  2.0000E-03  4.0000E-04  4.0000E-04
   7   4.0000E-04  4.0000E-04  4.0000E-04  2.0000E-03  2.0000E-03  2.0000E-03  2.0000E-03  2.0000E-03  4.0000E-04   0.000    
   8    0.000      4.0000E-04  4.0000E-04  2.0000E-03  2.0000E-03  2.0000E-03  2.0000E-03  4.0000E-04  4.0000E-04   0.000    
   9    0.000      4.0000E-04  4.0000E-04  2.0000E-03  2.0000E-03  2.0000E-03  2.0000E-03  4.0000E-04  4.0000E-04   0.000    
  10    0.000      4.0000E-04  4.0000E-04  2.0000E-03  2.0000E-03  2.0000E-03  2.0000E-03  4.0000E-04  4.0000E-04  4.0000E-04
  11    0.000      4.0000E-04  4.0000E-04  2.0000E-03  2.0000E-03  2.0000E-03  2.0000E-03  4.0000E-04  4.0000E-04   0.000    
  12   4.0000E-04  4.0000E-04  2.0000E-03  2.0000E-03  2.0000E-03  2.0000E-03  2.0000E-03  4.0000E-04  4.0000E-04   0.000    
  13   2.0000E-03  2.0000E-03  2.0000E-03  2.0000E-03  2.0000E-03  2.0000E-03  2.0000E-03  2.0000E-03  2.0000E-03   0.000    
  14    0.000      4.0000E-04  4.0000E-04  4.0000E-04  4.0000E-04  4.0000E-04  4.0000E-04  4.0000E-04  2.0000E-03   0.000    
  15    0.000       0.000      4.0000E-04  4.0000E-04  4.0000E-04  4.0000E-04   0.000       0.000       0.000       0.000    

      VERTICAL HYD. COND. =  1.000000E-06 FOR LAYER   1

         SPECIFIC STORAGE =  1.000000E-06 FOR LAYER   1



                     SPECIFIC YIELD FOR LAYER   1
 READING ON UNIT    7 WITH FORMAT: (10F5.0)            

            1           2           3           4           5           6           7           8           9          10
 ........................................................................................................................
   1   0.2000      0.2000       0.000       0.000       0.000       0.000       0.000       0.000       0.000       0.000    
   2   0.1000      0.2000      0.2000       0.000       0.000      0.1000      0.1000      0.1000       0.000       0.000    
   3    0.000      0.1000      0.2000      0.2000      0.1000      0.1000      0.1000      0.1000       0.000       0.000    
   4   0.1000      0.1000      0.1000      0.2000      0.2000      0.2000      0.1000      0.1000      0.1000       0.000    
   5   0.1000      0.1000      0.1000      0.2000      0.2000      0.2000      0.2000      0.2000      0.2000      0.2000    
   6   0.1000      0.1000      0.1000      0.2000      0.2000      0.2000      0.2000      0.2000      0.1000      0.1000    
   7   0.1000      0.1000      0.1000      0.2000      0.2000      0.2000      0.2000      0.2000      0.1000       0.000    
   8    0.000      0.1000      0.1000      0.2000      0.2000      0.2000      0.2000      0.1000      0.1000       0.000    
   9    0.000      0.1000      0.1000      0.2000      0.2000      0.2000      0.2000      0.1000      0.1000       0.000    
  10    0.000      0.1000      0.1000      0.2000      0.2000      0.2000      0.2000      0.1000      0.1000      0.1000    
  11    0.000      0.1000      0.1000      0.2000      0.2000      0.2000      0.2000      0.1000      0.1000       0.000    
  12   0.1000      0.1000      0.2000      0.2000      0.2000      0.2000      0.2000      0.1000      0.1000       0.000    
  13   0.2000      0.2000      0.2000      0.2000      0.2000      0.2000      0.2000      0.2000      0.2000       0.000    
  14    0.000      0.1000      0.1000      0.1000      0.1000      0.1000      0.1000      0.1000      0.2000       0.000    
  15    0.000       0.000      0.1000      0.1000      0.1000      0.1000       0.000       0.000       0.000       0.000    

 GHB -- GENERAL-HEAD BOUNDARY PACKAGE, VERSION 7, 5/2/2005
         INPUT READ FROM UNIT   17
 No named parameters
 MAXIMUM OF      2 ACTIVE GHB CELLS AT ONE TIME
 CELL-BY-CELL FLOWS WILL BE PRINTED WHEN ICBCFL NOT 0


     0 GHB parameters

 SFR7 -- STREAMFLOW ROUTING PACKAGE, VERSION 1.0.5, 2012-04-05
         INPUT READ FROM UNIT  15
 #SFR2 Package input for Testing supplimental pumping and irrigation
 No named parameters

 PROCESSING SFR2 OPTIONS
 
          2 Specified inflow files will be read with a maximum of       1446 row entries per file
 
Stream loss will be calculated as a factor of the streambed hydraulic conductivity. Multiplication factor is equal to     0.1000000015E+00

 END PROCESSING SFR2 OPTIONS
 


 NUMBER OF STREAM REACHES IS   38

 NUMBER OF STREAM SEGMENTS IS    9

 NUMBER OF STREAM PARAMETERS IS    0

 NUMBER OF STREAM SEGMENTS DEFINED USING PARAMETERS IS              0

 MAXIMUM ERROR FOR STREAM LEAKAGE RATES IS  1.00E-06

 CONSTANT FOR MANNINGS EQUATION IS  1.4860E+00



 STREAM OUTPUT WILL BE WRITTEN TO FILE ON UNIT   81


   STREAM NETWORK DESCRIPTION: 

   LAYER    ROW    COL   SEGMENT   REACH     LENGTH
                          NUMBER   NUMBER    IN CELL        
   --------------------------------------------------
      1      1      1       1        1    4.5000E+03
      1      2      2       1        2    7.0000E+03
      1      3      3       1        3    6.0000E+03
      1      3      4       1        4    5.5500E+03
      1      4      5       2        1    6.5000E+03
      1      5      6       2        2    5.0000E+03
      1      6      6       2        3    5.0000E+03
      1      7      6       2        4    5.0000E+03
      1      8      6       2        5    5.0000E+03
      1      3      5       3        1    5.0000E+03
      1      3      6       3        2    5.0000E+03
      1      3      7       3        3    4.5000E+03
      1      4      8       3        4    6.0000E+03
      1      5      8       3        5    5.0000E+03
      1      6      8       3        6    2.0000E+03
      1      5     10       4        1    2.5000E+03
      1      5      9       4        2    5.0000E+03
      1      6      8       4        3    3.5000E+03
      1      6      8       5        1    4.0000E+03
      1      7      7       5        2    5.0000E+03
      1      8      7       5        3    3.5000E+03
      1      8      6       5        4    2.5000E+03
      1      9      6       6        1    5.0000E+03
      1     10      7       6        2    5.0000E+03
      1     11      7       6        3    5.0000E+03
      1     12      7       6        4    5.0000E+03
      1     13      7       6        5    2.0000E+03
      1     14      9       7        1    5.0000E+03
      1     13      8       7        2    5.5000E+03
      1     13      7       7        3    5.0000E+03
      1     13      6       8        1    5.0000E+03
      1     13      5       8        2    5.0000E+03
      1     13      4       8        3    5.0000E+03
      1     13      3       8        4    5.0000E+03
      1     13      2       8        5    5.0000E+03
      1     13      1       8        6    3.0000E+03
      1      8      6       9        1    3.0000E+03
      1      8      5       9        2    3.0000E+03




 UZF1 -- UNSATURATED FLOW PACKAGE, VERSION 1.5, 09/10/2019
         INPUT READ FROM UNIT 19
 #UZF Package input for test simulation 2
 No named parameters

 PROCESSING UZF OPTIONS
 
 
 INITIAL WATER CONTENT (THTI) WILL BE 
READ FOR THE FIRST SS OR TR STRESS PERIOD
 
 
 RESIDUAL WATER CONTENT (THTR) WILL BE 
READ AND USED FOR THE FIRST TRANSIENT STRESS 
PERIOD
 
 
AIR ENTRY PRESSURE AND ROOT PRESSURE WILL BE 
SPECIFIED BY USER AND UZ ET WILL BE SIMULATED 
AS PRESSURE-HEAD DEPENDENT
 
 
INFILTRATION WILL BE REJECTED USING 
LAND SURFACE K
 
 
HYDRAULIC CONDUCTIVITY OF LAND SURFACE 
WILL BE READ
 

 END PROCESSING UZF OPTIONS



            AREAL EXTENT OF UZ FLOW
 READING ON UNIT   19 WITH FORMAT: (20I4)              

                1           2           3           4           5           6           7           8           9          10
 ............................................................................................................................
   1            1           1           0           0           0           0           0           0           0           0
   2            1           1           1           0           0           1           1           1           0           0
   3            0           1           1           1           1           1           1           1           0           0
   4            1           1           1           1           1           1           1           1           1           0
   5            1           1           1           1           1           1           1           1           1           1
   6            1           1           1           1           1           1           1           1           1           1
   7            1           1           1           1           1           1           1           1           1           0
   8            0           1           1           1           1           1           1           1           1           0
   9            0           1           1           1           1           1           1           1           1           0
  10            0           1           1           1           1           1           1           1           1           1
  11            0           1           1           1           1           1           1           1           1           0
  12            1           1           1           1           1           1           1           1           1           0
  13            1           1           1           1           1           1           1           1           1           0
  14            0           1           1           1           1           1           1           1           1           0
  15            0           0           1           1           1           1           0           0           0           0
 OPTION 1 -- RECHARGE IN UZF TO TOP LAYER ONLY 



            ROUTING OVERLAND RUNOFF
 READING ON UNIT   19 WITH FORMAT: (20I4)              

                1           2           3           4           5           6           7           8           9          10
 ............................................................................................................................
   1            1           1           0           0           0           0           0           0           0           0
   2            1           1           1           0           0           3           3           3           0           0
   3            0           1           1           1           3           3           3           3           0           0
   4            8           8           2           2           2           2           2           3           3           0
   5            8           8           8           8           2           2           2           3           4           4
   6            8           8           8           8           8           2           2           4           4           4
   7            8           8           8           8           8           2           5           5           5           0
   8            0           8           8           8           8           2           5           5           5           0
   9            0           8           8           8           8           6           6           6           6           0
  10            0           8           8           8           8           6           6           6           6           6
  11            0           8           8           8           8           8           6           6           7           0
  12            8           8           8           8           8           8           6           7           7           0
  13            8           8           8           8           8           8           7           7           7           0
  14            0           8           8           8           8           8           7           7           7           0
  15            0           0           8           8           8           8           0           0           0           0



               SATURATED VERTICAL K
 READING ON UNIT   19 WITH FORMAT: (10F4.0)            

            1           2           3           4           5           6           7           8           9          10
 ........................................................................................................................
   1   4.6000E-05  4.6000E-05   0.000       0.000       0.000       0.000       0.000       0.000       0.000       0.000    
   2   4.6000E-05  4.6000E-05  4.6000E-05   0.000       0.000      4.6000E-05  4.6000E-05  4.6000E-05   0.000       0.000    
   3    0.000      4.6000E-05  4.6000E-05  4.6000E-05  4.6000E-05  4.6000E-05  4.6000E-05  4.6000E-05   0.000       0.000    
   4   4.6000E-05  4.6000E-05  4.6000E-05  4.6000E-05  4.6000E-05  4.6000E-05  4.6000E-05  4.6000E-05  4.6000E-05   0.000    
   5   4.6000E-05  4.6000E-05  4.6000E-05  4.6000E-05  4.6000E-05  4.6000E-05  4.6000E-05  4.6000E-05  4.6000E-05  4.6000E-05
   6   4.6000E-05  4.6000E-05  4.6000E-05  4.6000E-05  4.6000E-05  4.6000E-05  4.6000E-05  4.6000E-05  4.6000E-05  4.6000E-05
   7   4.6000E-05  4.6000E-05  4.6000E-05  4.6000E-05  4.6000E-05  4.6000E-05  4.6000E-05  4.6000E-05  4.6000E-05   0.000    
   8    0.000      4.6000E-05  4.6000E-05  4.6000E-05  4.6000E-05  4.6000E-05  4.6000E-05  4.6000E-05  4.6000E-05   0.000    
   9    0.000      4.6000E-05  4.6000E-05  4.6000E-05  4.6000E-05  4.6000E-05  4.6000E-05  4.6000E-05  4.6000E-05   0.000    
  10    0.000      4.6000E-05  4.6000E-05  4.6000E-05  4.6000E-05  4.6000E-05  4.6000E-05  4.6000E-05  4.6000E-05  4.6000E-05
  11    0.000      4.6000E-05  4.6000E-05  4.6000E-05  4.6000E-05  4.6000E-05  4.6000E-05  4.6000E-05  4.6000E-05   0.000    
  12   4.6000E-05  4.6000E-05  4.6000E-05  4.6000E-05  4.6000E-05  4.6000E-05  4.6000E-05  4.6000E-05  4.6000E-05   0.000    
  13   4.6000E-05  4.6000E-05  4.6000E-05  4.6000E-05  4.6000E-05  4.6000E-05  4.6000E-05  4.6000E-05  4.6000E-05   0.000    
  14    0.000      4.6000E-05  4.6000E-05  4.6000E-05  4.6000E-05  4.6000E-05  4.6000E-05  4.6000E-05  4.6000E-05   0.000    
  15    0.000       0.000      4.6000E-05  4.6000E-05  4.6000E-05  4.6000E-05   0.000       0.000       0.000       0.000    



            LAND SURFACE VERTICAL K
 READING ON UNIT   19 WITH FORMAT: (10F4.0)            

            1           2           3           4           5           6           7           8           9          10
 ........................................................................................................................
   1   1.0000E-05  1.0000E-05   0.000       0.000       0.000       0.000       0.000       0.000       0.000       0.000    
   2   1.0000E-05  1.0000E-05  1.0000E-05   0.000       0.000      1.0000E-05  1.0000E-05  1.0000E-05   0.000       0.000    
   3    0.000      1.0000E-05  1.0000E-05  1.0000E-05  1.0000E-05  1.0000E-05  1.0000E-05  1.0000E-05   0.000       0.000    
   4   1.0000E-05  1.0000E-05  1.0000E-05  1.0000E-05  1.0000E-05  1.0000E-05  1.0000E-05  1.0000E-05  1.0000E-05   0.000    
   5   1.0000E-05  1.0000E-05  1.0000E-05  1.0000E-05  1.0000E-05  1.0000E-05  1.0000E-05  1.0000E-05  1.0000E-05  1.0000E-05
   6   1.0000E-05  1.0000E-05  1.0000E-05  1.0000E-05  1.0000E-05  1.0000E-05  1.0000E-05  1.0000E-05  1.0000E-05  1.0000E-05
   7   1.0000E-05  1.0000E-05  1.0000E-05  1.0000E-05  1.0000E-05  1.0000E-05  1.0000E-05  1.0000E-05  1.0000E-05   0.000    
   8    0.000      1.0000E-05  1.0000E-05  1.0000E-05  1.0000E-05  1.0000E-05  1.0000E-05  1.0000E-05  1.0000E-05   0.000    
   9    0.000      1.0000E-05  1.0000E-05  1.0000E-05  1.0000E-05  1.0000E-05  1.0000E-05  1.0000E-05  1.0000E-05   0.000    
  10    0.000      1.0000E-05  1.0000E-05  1.0000E-05  1.0000E-05  1.0000E-05  1.0000E-05  1.0000E-05  1.0000E-05  1.0000E-05
  11    0.000      1.0000E-05  1.0000E-05  1.0000E-05  1.0000E-05  1.0000E-05  1.0000E-05  1.0000E-05  1.0000E-05   0.000    
  12   1.0000E-05  1.0000E-05  1.0000E-05  1.0000E-05  1.0000E-05  1.0000E-05  1.0000E-05  1.0000E-05  1.0000E-05   0.000    
  13   1.0000E-05  1.0000E-05  1.0000E-05  1.0000E-05  1.0000E-05  1.0000E-05  1.0000E-05  1.0000E-05  1.0000E-05   0.000    
  14    0.000      1.0000E-05  1.0000E-05  1.0000E-05  1.0000E-05  1.0000E-05  1.0000E-05  1.0000E-05  1.0000E-05   0.000    
  15    0.000       0.000      1.0000E-05  1.0000E-05  1.0000E-05  1.0000E-05   0.000       0.000       0.000       0.000    

     BROOKS-COREY EPSILON =   7.50000    

  SATURATED WATER CONTENT =  0.380000    

   RESIDUAL WATER CONTENT =  0.200000    

    INITIAL WATER CONTENT =  0.200000    

UNSATURATED FLOW RESULTS WILL BE PRINTED TO SEPARATE FILES FOR SELECTED MODEL CELLS, AND TIME STEPS AS DEFINED BY OUTPUT CONTROL PACKAGE 

SELECTED MODEL CELLS ARE: 
 ROW NUMBER  COLUMN NUMBER  FORTRAN UNIT NUMBER  OUTPUT OPTION


       6             4                 65                 1
       6             5                 66                 2
       8             4                 67                 3
       0             0                 68                 4



   9 GAGING STATIONS WERE SPECIFIED.
     (Lakes are identified by a negative value of the Lake Number)
     RECORDS WILL BE WRITTEN TO SEPARATE OUTPUT FILES REPRESENTED BY FOLLOWING UNIT NUMBERS:

 Stream Gages:
  GAGE #   SEGMENT   REACH   UNIT   OUTTYPE
       1       1       4      83       1
       2       2       5      84       1
       3       3       5      85       1
       4       4       3      86       1
       5       5       4      87       4
       6       6       5      88       4
       7       7       3      89       4
       8       8       6      90       4
       9       9       1      91       5





 AG -- AG PACKAGE FOR NWT VERSION 1.1.3,  8/01/2017 INPUT READ FROM UNIT   57
 # AG options

 PROCESSING AG OPTIONS
 
 AGRICULTURAL DEMANDS WILL BE CALCULATED USING ET DEFICIT
 
 
 OPTION TO APPLY SURFACE WATER AS IRRIGATION IS ACTIVE. DIVERTED SURFACE WATER WILL BE APPLIED TO          1 CELLS/RHUS.
 
 
 OPTION TO PUMP SUPPLEMENTARY WATER FOR SURFACE DIVERSION SHORTFALL IS ACTIVATED.  A TOTAL OF             6 SUPPLEMENTAL WELLS ARE ACTIVE
 
 
 OPTION TO APPLY PUMPED WATER AS IRRIGATION IS ACTIVE. PUMPED IRRIGATION WATER WILL BE APPLIED TO          6 CELLS/RHUS.
 
 
 THE MAXIMUM NUMBER OF WELLS FOR SUPPLEMENTING DIVERSIONS OR APPLYING IRRIGATION IS          6 WELLS.
 
 
  UNFORMATTED CELL BY CELL RATES FOR SUP AND IRR WELLS WILL BE SAVED TO FILE UNIT NUMBER         -2
 
 
  UNFORMATTED CELL BY CELL RATES FOR SUP AND IRR WELLS WILL BE SAVED TO FILE UNIT NUMBER         -2
 
 
  UNFORMATTED CELL BY CELL RATES FOR SUP AND IRR WELLS WILL BE SAVED TO FILE UNIT NUMBER         -2
 
 
  UNFORMATTED CELL BY CELL RATES FOR SUP AND IRR WELLS WILL BE SAVED TO FILE UNIT NUMBER         -2
 
 
  GROUND WATER IRRIGATION, POTENTIAL AND ACTUAL ET WILL BE SAVED TO TIMES SERIES OUTPUT FILES.
 
 
  SURFACE WATER IRRIGATION, POTENTIAL AND ACTUAL ET WILL BE SAVED TO TIMES SERIES OUTPUT FILES.
 
 
  SURFACE WATER IRRIGATION, POTENTIAL AND ACTUAL ET WILL BE SAVED TO TIMES SERIES OUTPUT FILES.
 

 END PROCESSING AG OPTIONS
 # AG time series

 PROCESSING TIME SERIES

 FINISHED READING TIME SERIES
 A total number of          1 AG output time series files were activated for SURFACE WATER 
 A total number of          1 AG output time series files were activated for GROUNDWATER 
 A total number of          1 AG output time series files were activated for SURFACE WATER ET
 A total number of          0 AG output time series files were activated for GROUNDWATER ET
1
                            STRESS PERIOD NO.    1, LENGTH =   86400.00    
                            -----------------------------------------------

                              NUMBER OF TIME STEPS =     1

                               MULTIPLIER FOR DELT =     1.000

                            INITIAL TIME STEP SIZE =   86400.00    

 BOUND. NO. LAYER   ROW   COL     STAGE      CONDUCTANCE         
 ----------------------------------------------------------------
      1      1     13      1       988.0          0.3800E-01
      2      1     14      9       1045.          0.3800E-01

      2 GHB CELLS



 CLASSIFICATION & COUNT OF STREAM SEGMENTS BASED ON SOURCE OF INFLOW:

                HEADWATER     DIVERSION     RECEIVES TRIBUTARY FLOW
                ---------     ---------     -----------------------
                     3              2               4



                    INPUT DATA FOR EACH STREAM SEGMENT
 ---------------------------------------------------------------------------------------------

 SEGMENT    SEG.     INFLOW   OVERLAND   STREAM    STREAM   ICALC  OUTFLOW  DIVERSION PRIORITY
    NO.    LENGTH     RATE     RUNOFF      ET       PPT.    METH.  TO SEG.  FROM SEG.    NO.

      1  2.305E+04 2.500E+01 0.000E+00 0.000E+00 0.000E+00    4        2        0        0
      2  2.650E+04 0.000E+00 0.000E+00 0.000E+00 0.000E+00    1        6        0        0
      3  2.750E+04 2.000E+00 0.000E+00 0.000E+00 0.000E+00    0        5        1        0
      4  1.100E+04 1.000E+01 0.000E+00 0.000E+00 0.000E+00    1        5        0        0
      5  1.500E+04 0.000E+00 0.000E+00 0.000E+00 0.000E+00    3        6        0        0
      6  2.200E+04 0.000E+00 0.000E+00 0.000E+00 0.000E+00    1        8        0        0
      7  1.550E+04 1.500E+02 0.000E+00 0.000E+00 0.000E+00    2        8        0        0
      8  2.800E+04 0.000E+00 0.000E+00 0.000E+00 0.000E+00    2        0        0        0
      9  6.000E+03 0.000E+00 0.000E+00 0.000E+00 0.000E+00    1        0        2        0


         STREAMBED PROPERTIES AND STREAM DIMENSIONS

 SEGMENT     BED HYD. COND.      BED THICKNESS     ELEV.-TOP OF BED     WIDTH OF STREAM     DEPTH OF STREAM    STREAM ROUGHNESS
    No.     UPPER     LOWER     UPPER     LOWER     UPPER     LOWER     UPPER     LOWER     UPPER     LOWER   CHANNEL      BANK

     1  3.000E-05 3.000E-05 3.000E+00 3.000E+00 1.095E+03 1.075E+03
     2  3.000E-05 3.000E-05 3.000E+00 3.000E+00 1.075E+03 1.050E+03 1.200E+01 1.200E+01                     3.000E-02
     3  3.000E-05 3.000E-05 2.000E+00 2.000E+00 1.075E+03 1.060E+03 1.000E+01 6.000E+00 2.000E+00 1.000E+00
     4  3.000E-05 3.000E-05 3.000E+00 3.000E+00 1.080E+03 1.060E+03 1.000E+01 1.000E+01                     3.000E-02
     5  3.000E-05 3.000E-05 3.000E+00 3.000E+00 1.060E+03 1.045E+03
     6  3.000E-05 3.000E-05 3.000E+00 3.000E+00 1.045E+03 1.025E+03 1.200E+01 1.200E+01                     3.000E-02
     7  6.000E-05 6.000E-05 3.000E+00 3.000E+00 1.040E+03 1.025E+03                                         2.500E-02 4.500E-02
     8  6.000E-05 6.000E-05 3.000E+00 3.000E+00 1.025E+03 9.900E+02                                         2.500E-02 4.500E-02
     9  0.000E+00 0.000E+00 3.000E+00 3.000E+00 1.079E+03 1.078E+03 4.000E+00 4.000E+00                     3.000E-02

  EIGHT POINT CROSS-SECTION DATA FOR SEGMENTS WITH ICALC = 2
    X VALUES X VALUES START FROM LEFT SIDE LOOKING DOWNSTREAM

     SEGMENT NO.        X1        X2        X3        X4        X5        X6        X7        X8
            7      0.000E+00 1.000E+01 8.000E+01 1.000E+02 1.500E+02 1.700E+02 2.400E+02 2.500E+02
            8      0.000E+00 1.000E+01 8.000E+01 1.000E+02 1.500E+02 1.700E+02 2.400E+02 2.500E+02

    Z VALUES ARE RELATIVE TO STREAMBED ELEVATION

     SEGMENT NO.          Z1        Z2        Z3        Z4        Z5        Z6        Z7        Z8
            7      2.000E+01 1.300E+01 1.000E+01 2.000E+00 0.000E+00 1.000E+01 1.300E+01 2.000E+01
            8      2.500E+01 1.700E+01 1.300E+01 4.000E+00 0.000E+00 1.000E+01 1.600E+01 2.000E+01

 STREAMFLOW RELATION WITH DEPTH IS BASED ON EQUATION Q = CDPTH*(DEPTH)**FDPTH
 STREAMFLOW RELATION WITH WIDTH IS BASED ON EQUATION Q = AWDTH*(WIDTH)**BWDTH

 SEGMENT NO.      CDPTH     FDPTH    AWDTH     BWDTH

          5 3.000E-01 3.500E-01 3.800E+00 6.000E-01

 STREAMFLOW RELATION WITH DEPTH AND WIDTH IS BASED ON TABULATED VALUES

  SEGMENT NO.   STREAMFLOW       DEPTH       WIDTH

          1     5.0000E-01   2.5000E-01   3.0000E+00
          1     1.0000E+00   4.0000E-01   3.5000E+00
          1     2.0000E+00   5.5000E-01   4.2000E+00
          1     4.0000E+00   7.0000E-01   5.3000E+00
          1     7.0000E+00   8.0000E-01   7.0000E+00
          1     1.0000E+01   9.0000E-01   8.5000E+00
          1     2.0000E+01   1.1000E+00   1.2000E+01
          1     3.0000E+01   1.2500E+00   1.4000E+01
          1     5.0000E+01   1.4000E+00   1.7000E+01
          1     7.5000E+01   1.7000E+00   2.0000E+01
          1     1.0000E+02   1.8000E+00   2.2000E+01



TABULAR INFLOWS WERE READ FOR SEGMENT      1
FROM FILE UNIT NUMBER     55

          TIMES                    INFLOWS
         0.0000000000E+00     0.1875000000E+01
         0.8640000000E+05     0.8250000000E+01
         0.2760000000E+07     0.1575000000E+02
         0.5270000000E+07     0.2887500000E+02
         0.7950000000E+07     0.1050000000E+02
         0.1050000000E+08     0.3712500000E+02
         0.1320000000E+08     0.3112500000E+02
         0.1580000000E+08     0.2812500000E+02
         0.1850000000E+08     0.2287500000E+02
         0.2120000000E+08     0.1762500000E+02
         0.2380000000E+08     0.1312500000E+02
         0.2640000000E+08     0.9750000000E+01
         0.2900000000E+08     0.8625000000E+01
         0.3170000000E+08     0.7125000000E+01
         0.3440000000E+08     0.7875000000E+01
         0.3680000000E+08     0.3675000000E+02
         0.3950000000E+08     0.2812500000E+02
         0.4210000000E+08     0.2362500000E+02
         0.4480000000E+08     0.2175000000E+02
         0.4730000000E+08     0.2025000000E+02
         0.5000000000E+08     0.1387500000E+02
         0.5270000000E+08     0.9375000000E+01
         0.5530000000E+08     0.8250000000E+01
         0.5800000000E+08     0.7875000000E+01
         0.6060000000E+08     0.7500000000E+01
         0.6320000000E+08     0.7125000000E+01
         0.6330000000E+08     0.8250000000E+01
         0.6600000000E+08     0.1575000000E+02
         0.6850000000E+08     0.2887500000E+02
         0.7120000000E+08     0.1050000000E+02
         0.7370000000E+08     0.3712500000E+02
         0.7640000000E+08     0.3112500000E+02
         0.7900000000E+08     0.2812500000E+02
         0.8170000000E+08     0.2287500000E+02
         0.8440000000E+08     0.1762500000E+02
         0.8700000000E+08     0.1312500000E+02
         0.8960000000E+08     0.9750000000E+01
         0.9220000000E+08     0.8625000000E+01
         0.9490000000E+08     0.7125000000E+01
         0.9760000000E+08     0.7875000000E+01
         0.1000000000E+09     0.3675000000E+02
         0.1030000000E+09     0.2812500000E+02
         0.1050000000E+09     0.2362500000E+02
         0.1080000000E+09     0.2175000000E+02
         0.1110000000E+09     0.2025000000E+02
         0.1130000000E+09     0.1387500000E+02
         0.1160000000E+09     0.9375000000E+01
         0.1190000000E+09     0.8250000000E+01
         0.1210000000E+09     0.7875000000E+01
         0.1240000000E+09     0.7500000000E+01
         0.1260000000E+09     0.7125000000E+01
TABULAR INFLOWS WERE READ FOR SEGMENT      9
FROM FILE UNIT NUMBER     56

          TIMES                    INFLOWS
         0.0000000000E+00     0.1000000000E+03
         0.8640000000E+05     0.1000000000E+03
         0.1730000000E+06     0.1000000000E+03
         0.2590000000E+06     0.1000000000E+03
         0.3460000000E+06     0.1000000000E+03
         0.4320000000E+06     0.1000000000E+03
         0.5180000000E+06     0.1000000000E+03
         0.6050000000E+06     0.1000000000E+03
         0.6910000000E+06     0.1000000000E+03
         0.7780000000E+06     0.1000000000E+03
         0.8640000000E+06     0.1000000000E+03
         0.9500000000E+06     0.1000000000E+03
         0.1040000000E+07     0.1000000000E+03
         0.1120000000E+07     0.1000000000E+03
         0.1210000000E+07     0.1000000000E+03
         0.1300000000E+07     0.1000000000E+03
         0.1380000000E+07     0.1000000000E+03
         0.1470000000E+07     0.1000000000E+03
         0.1560000000E+07     0.1000000000E+03
         0.1640000000E+07     0.1000000000E+03
         0.1730000000E+07     0.1000000000E+03
         0.1810000000E+07     0.1000000000E+03
         0.1900000000E+07     0.1000000000E+03
         0.1990000000E+07     0.1000000000E+03
         0.2070000000E+07     0.1000000000E+03
         0.2160000000E+07     0.1000000000E+03
         0.2250000000E+07     0.1000000000E+03
         0.2330000000E+07     0.1000000000E+03
         0.2420000000E+07     0.1000000000E+03
         0.2510000000E+07     0.1000000000E+03
         0.2590000000E+07     0.1000000000E+03
         0.2680000000E+07     0.1000000000E+03
         0.2760000000E+07     0.1000000000E+03
         0.2850000000E+07     0.1000000000E+03
         0.2940000000E+07     0.1000000000E+03
         0.3020000000E+07     0.1000000000E+03
         0.3110000000E+07     0.1000000000E+03
         0.3200000000E+07     0.1000000000E+03
         0.3280000000E+07     0.1000000000E+03
         0.3370000000E+07     0.1000000000E+03
         0.3460000000E+07     0.1000000000E+03
         0.3540000000E+07     0.1000000000E+03
         0.3630000000E+07     0.1000000000E+03
         0.3720000000E+07     0.1000000000E+03
         0.3800000000E+07     0.1000000000E+03
         0.3890000000E+07     0.1000000000E+03
         0.3970000000E+07     0.1000000000E+03
         0.4060000000E+07     0.1000000000E+03
         0.4150000000E+07     0.1000000000E+03
         0.4230000000E+07     0.1000000000E+03
         0.4320000000E+07     0.1000000000E+03
         0.4410000000E+07     0.1000000000E+03
         0.4490000000E+07     0.1000000000E+03
         0.4580000000E+07     0.1000000000E+03
         0.4670000000E+07     0.1000000000E+03
         0.4750000000E+07     0.1000000000E+03
         0.4840000000E+07     0.1000000000E+03
         0.4920000000E+07     0.1000000000E+03
         0.5010000000E+07     0.1000000000E+03
         0.5100000000E+07     0.1000000000E+03
         0.5180000000E+07     0.1000000000E+03
         0.5270000000E+07     0.1000000000E+03
         0.5360000000E+07     0.1000000000E+03
         0.5440000000E+07     0.1000000000E+03
         0.5530000000E+07     0.1000000000E+03
         0.5620000000E+07     0.1000000000E+03
         0.5700000000E+07     0.1000000000E+03
         0.5790000000E+07     0.1000000000E+03
         0.5880000000E+07     0.1000000000E+03
         0.5960000000E+07     0.1000000000E+03
         0.6050000000E+07     0.1000000000E+03
         0.6130000000E+07     0.1000000000E+03
         0.6220000000E+07     0.1000000000E+03
         0.6310000000E+07     0.1000000000E+03
         0.6390000000E+07     0.1000000000E+03
         0.6480000000E+07     0.1000000000E+03
         0.6570000000E+07     0.1000000000E+03
         0.6650000000E+07     0.1000000000E+03
         0.6740000000E+07     0.1000000000E+03
         0.6830000000E+07     0.1000000000E+03
         0.6910000000E+07     0.1000000000E+03
         0.7000000000E+07     0.1000000000E+03
         0.7080000000E+07     0.1000000000E+03
         0.7170000000E+07     0.1000000000E+03
         0.7260000000E+07     0.1000000000E+03
         0.7340000000E+07     0.1000000000E+03
         0.7430000000E+07     0.1000000000E+03
         0.7520000000E+07     0.1000000000E+03
         0.7600000000E+07     0.1000000000E+03
         0.7690000000E+07     0.1000000000E+03
         0.7780000000E+07     0.1000000000E+03
         0.7860000000E+07     0.1000000000E+03
         0.7950000000E+07     0.1000000000E+03
         0.8040000000E+07     0.1000000000E+03
         0.8120000000E+07     0.1000000000E+03
         0.8210000000E+07     0.1000000000E+03
         0.8290000000E+07     0.1000000000E+03
         0.8380000000E+07     0.1000000000E+03
         0.8470000000E+07     0.1000000000E+03
         0.8550000000E+07     0.1000000000E+03
         0.8640000000E+07     0.1000000000E+03
         0.8730000000E+07     0.1000000000E+03
         0.8810000000E+07     0.1000000000E+03
         0.8900000000E+07     0.1000000000E+03
         0.8990000000E+07     0.1000000000E+03
         0.9070000000E+07     0.1000000000E+03
         0.9160000000E+07     0.1000000000E+03
         0.9240000000E+07     0.1000000000E+03
         0.9330000000E+07     0.1000000000E+03
         0.9420000000E+07     0.1000000000E+03
         0.9500000000E+07     0.1000000000E+03
         0.9590000000E+07     0.1000000000E+03
         0.9680000000E+07     0.1000000000E+03
         0.9760000000E+07     0.1000000000E+03
         0.9850000000E+07     0.1000000000E+03
         0.9940000000E+07     0.1000000000E+03
         0.1000000000E+08     0.1000000000E+03
         0.1010000000E+08     0.1000000000E+03
         0.1020000000E+08     0.1000000000E+03
         0.1030000000E+08     0.1000000000E+03
         0.1040000000E+08     0.1000000000E+03
         0.1050000000E+08     0.1000000000E+03
         0.1050000000E+08     0.1000000000E+03
         0.1060000000E+08     0.1000000000E+03
         0.1070000000E+08     0.1000000000E+03
         0.1080000000E+08     0.1000000000E+03
         0.1090000000E+08     0.1000000000E+03
         0.1100000000E+08     0.1000000000E+03
         0.1110000000E+08     0.1000000000E+03
         0.1110000000E+08     0.1000000000E+03
         0.1120000000E+08     0.1000000000E+03
         0.1130000000E+08     0.1000000000E+03
         0.1140000000E+08     0.1000000000E+03
         0.1150000000E+08     0.1000000000E+03
         0.1160000000E+08     0.1000000000E+03
         0.1170000000E+08     0.1000000000E+03
         0.1180000000E+08     0.1000000000E+03
         0.1180000000E+08     0.1000000000E+03
         0.1190000000E+08     0.1000000000E+03
         0.1200000000E+08     0.1000000000E+03
         0.1210000000E+08     0.1000000000E+03
         0.1220000000E+08     0.1000000000E+03
         0.1230000000E+08     0.1000000000E+03
         0.1240000000E+08     0.1000000000E+03
         0.1240000000E+08     0.1000000000E+03
         0.1250000000E+08     0.1000000000E+03
         0.1260000000E+08     0.1000000000E+03
         0.1270000000E+08     0.1000000000E+03
         0.1280000000E+08     0.1000000000E+03
         0.1290000000E+08     0.1000000000E+03
         0.1300000000E+08     0.1000000000E+03
         0.1300000000E+08     0.1000000000E+03
         0.1310000000E+08     0.1000000000E+03
         0.1320000000E+08     0.1000000000E+03
         0.1330000000E+08     0.1000000000E+03
         0.1340000000E+08     0.1000000000E+03
         0.1350000000E+08     0.1000000000E+03
         0.1360000000E+08     0.1000000000E+03
         0.1370000000E+08     0.1000000000E+03
         0.1370000000E+08     0.1000000000E+03
         0.1380000000E+08     0.1000000000E+03
         0.1390000000E+08     0.1000000000E+03
         0.1400000000E+08     0.1000000000E+03
         0.1410000000E+08     0.1000000000E+03
         0.1420000000E+08     0.1000000000E+03
         0.1430000000E+08     0.1000000000E+03
         0.1430000000E+08     0.1000000000E+03
         0.1440000000E+08     0.1000000000E+03
         0.1450000000E+08     0.1000000000E+03
         0.1460000000E+08     0.1000000000E+03
         0.1470000000E+08     0.1000000000E+03
         0.1480000000E+08     0.1000000000E+03
         0.1490000000E+08     0.1000000000E+03
         0.1490000000E+08     0.1000000000E+03
         0.1500000000E+08     0.1000000000E+03
         0.1510000000E+08     0.1000000000E+03
         0.1520000000E+08     0.1000000000E+03
         0.1530000000E+08     0.1000000000E+03
         0.1540000000E+08     0.1000000000E+03
         0.1550000000E+08     0.1000000000E+03
         0.1560000000E+08     0.1000000000E+03
         0.1560000000E+08     0.1000000000E+03
         0.1570000000E+08     0.1000000000E+03
         0.1580000000E+08     0.1000000000E+03
         0.1590000000E+08     0.1000000000E+03
         0.1600000000E+08     0.1000000000E+03
         0.1610000000E+08     0.1000000000E+03
         0.1620000000E+08     0.1000000000E+03
         0.1620000000E+08     0.1000000000E+03
         0.1630000000E+08     0.1000000000E+03
         0.1640000000E+08     0.1000000000E+03
         0.1650000000E+08     0.1000000000E+03
         0.1660000000E+08     0.1000000000E+03
         0.1670000000E+08     0.1000000000E+03
         0.1680000000E+08     0.1000000000E+03
         0.1680000000E+08     0.1000000000E+03
         0.1690000000E+08     0.1000000000E+03
         0.1700000000E+08     0.1000000000E+03
         0.1710000000E+08     0.1000000000E+03
         0.1720000000E+08     0.1000000000E+03
         0.1730000000E+08     0.1000000000E+03
         0.1740000000E+08     0.1000000000E+03
         0.1750000000E+08     0.1000000000E+03
         0.1750000000E+08     0.1000000000E+03
         0.1760000000E+08     0.1000000000E+03
         0.1770000000E+08     0.1000000000E+03
         0.1780000000E+08     0.1000000000E+03
         0.1790000000E+08     0.1000000000E+03
         0.1800000000E+08     0.1000000000E+03
         0.1810000000E+08     0.1000000000E+03
         0.1810000000E+08     0.1000000000E+03
         0.1820000000E+08     0.1000000000E+03
         0.1830000000E+08     0.1000000000E+03
         0.1840000000E+08     0.1000000000E+03
         0.1850000000E+08     0.1000000000E+03
         0.1860000000E+08     0.1000000000E+03
         0.1870000000E+08     0.1000000000E+03
         0.1870000000E+08     0.1000000000E+03
         0.1880000000E+08     0.1000000000E+03
         0.1890000000E+08     0.1000000000E+03
         0.1900000000E+08     0.1000000000E+03
         0.1910000000E+08     0.1000000000E+03
         0.1920000000E+08     0.1000000000E+03
         0.1930000000E+08     0.1000000000E+03
         0.1940000000E+08     0.1000000000E+03
         0.1940000000E+08     0.1000000000E+03
         0.1950000000E+08     0.1000000000E+03
         0.1960000000E+08     0.1000000000E+03
         0.1970000000E+08     0.1000000000E+03
         0.1980000000E+08     0.1000000000E+03
         0.1990000000E+08     0.1000000000E+03
         0.2000000000E+08     0.1000000000E+03
         0.2000000000E+08     0.1000000000E+03
         0.2010000000E+08     0.1000000000E+03
         0.2020000000E+08     0.1000000000E+03
         0.2030000000E+08     0.1000000000E+03
         0.2040000000E+08     0.1000000000E+03
         0.2050000000E+08     0.1000000000E+03
         0.2060000000E+08     0.1000000000E+03
         0.2070000000E+08     0.1000000000E+03
         0.2070000000E+08     0.1000000000E+03
         0.2080000000E+08     0.1000000000E+03
         0.2090000000E+08     0.1000000000E+03
         0.2100000000E+08     0.1000000000E+03
         0.2110000000E+08     0.1000000000E+03
         0.2120000000E+08     0.1000000000E+03
         0.2130000000E+08     0.1000000000E+03
         0.2130000000E+08     0.1000000000E+03
         0.2140000000E+08     0.1000000000E+03
         0.2150000000E+08     0.1000000000E+03
         0.2160000000E+08     0.1000000000E+03
         0.2170000000E+08     0.1000000000E+03
         0.2180000000E+08     0.1000000000E+03
         0.2190000000E+08     0.1000000000E+03
         0.2190000000E+08     0.1000000000E+03
         0.2200000000E+08     0.1000000000E+03
         0.2210000000E+08     0.1000000000E+03
         0.2220000000E+08     0.1000000000E+03
         0.2230000000E+08     0.1000000000E+03
         0.2240000000E+08     0.1000000000E+03
         0.2250000000E+08     0.1000000000E+03
         0.2260000000E+08     0.1000000000E+03
         0.2260000000E+08     0.1000000000E+03
         0.2270000000E+08     0.1000000000E+03
         0.2280000000E+08     0.1000000000E+03
         0.2290000000E+08     0.1000000000E+03
         0.2300000000E+08     0.1000000000E+03
         0.2310000000E+08     0.1000000000E+03
         0.2320000000E+08     0.1000000000E+03
         0.2320000000E+08     0.1000000000E+03
         0.2330000000E+08     0.1000000000E+03
         0.2340000000E+08     0.1000000000E+03
         0.2350000000E+08     0.1000000000E+03
         0.2360000000E+08     0.1000000000E+03
         0.2370000000E+08     0.1000000000E+03
         0.2380000000E+08     0.1000000000E+03
         0.2380000000E+08     0.1000000000E+03
         0.2390000000E+08     0.1000000000E+03
         0.2400000000E+08     0.1000000000E+03
         0.2410000000E+08     0.1000000000E+03
         0.2420000000E+08     0.1000000000E+03
         0.2430000000E+08     0.1000000000E+03
         0.2440000000E+08     0.1000000000E+03
         0.2450000000E+08     0.1000000000E+03
         0.2450000000E+08     0.1000000000E+03
         0.2460000000E+08     0.1000000000E+03
         0.2470000000E+08     0.1000000000E+03
         0.2480000000E+08     0.1000000000E+03
         0.2490000000E+08     0.1000000000E+03
         0.2500000000E+08     0.1000000000E+03
         0.2510000000E+08     0.1000000000E+03
         0.2510000000E+08     0.1000000000E+03
         0.2520000000E+08     0.1000000000E+03
         0.2530000000E+08     0.1000000000E+03
         0.2540000000E+08     0.1000000000E+03
         0.2550000000E+08     0.1000000000E+03
         0.2560000000E+08     0.1000000000E+03
         0.2570000000E+08     0.1000000000E+03
         0.2570000000E+08     0.1000000000E+03
         0.2580000000E+08     0.1000000000E+03
         0.2590000000E+08     0.1000000000E+03
         0.2600000000E+08     0.1000000000E+03
         0.2610000000E+08     0.1000000000E+03
         0.2620000000E+08     0.1000000000E+03
         0.2630000000E+08     0.1000000000E+03
         0.2640000000E+08     0.1000000000E+03
         0.2640000000E+08     0.1000000000E+03
         0.2650000000E+08     0.1000000000E+03
         0.2660000000E+08     0.1000000000E+03
         0.2670000000E+08     0.1000000000E+03
         0.2680000000E+08     0.1000000000E+03
         0.2690000000E+08     0.1000000000E+03
         0.2700000000E+08     0.1000000000E+03
         0.2700000000E+08     0.1000000000E+03
         0.2710000000E+08     0.1000000000E+03
         0.2720000000E+08     0.1000000000E+03
         0.2730000000E+08     0.1000000000E+03
         0.2740000000E+08     0.1000000000E+03
         0.2750000000E+08     0.1000000000E+03
         0.2760000000E+08     0.1000000000E+03
         0.2760000000E+08     0.1000000000E+03
         0.2770000000E+08     0.1000000000E+03
         0.2780000000E+08     0.1000000000E+03
         0.2790000000E+08     0.1000000000E+03
         0.2800000000E+08     0.1000000000E+03
         0.2810000000E+08     0.1000000000E+03
         0.2820000000E+08     0.1000000000E+03
         0.2830000000E+08     0.1000000000E+03
         0.2830000000E+08     0.1000000000E+03
         0.2840000000E+08     0.1000000000E+03
         0.2850000000E+08     0.1000000000E+03
         0.2860000000E+08     0.1000000000E+03
         0.2870000000E+08     0.1000000000E+03
         0.2880000000E+08     0.1000000000E+03
         0.2890000000E+08     0.1000000000E+03
         0.2890000000E+08     0.1000000000E+03
         0.2900000000E+08     0.1000000000E+03
         0.2910000000E+08     0.1000000000E+03
         0.2920000000E+08     0.1000000000E+03
         0.2930000000E+08     0.1000000000E+03
         0.2940000000E+08     0.1000000000E+03
         0.2950000000E+08     0.1000000000E+03
         0.2950000000E+08     0.1000000000E+03
         0.2960000000E+08     0.1000000000E+03
         0.2970000000E+08     0.1000000000E+03
         0.2980000000E+08     0.1000000000E+03
         0.2990000000E+08     0.1000000000E+03
         0.3000000000E+08     0.1000000000E+03
         0.3010000000E+08     0.1000000000E+03
         0.3020000000E+08     0.1000000000E+03
         0.3020000000E+08     0.1000000000E+03
         0.3030000000E+08     0.1000000000E+03
         0.3040000000E+08     0.1000000000E+03
         0.3050000000E+08     0.1000000000E+03
         0.3060000000E+08     0.1000000000E+03
         0.3070000000E+08     0.1000000000E+03
         0.3080000000E+08     0.1000000000E+03
         0.3080000000E+08     0.1000000000E+03
         0.3090000000E+08     0.1000000000E+03
         0.3100000000E+08     0.1000000000E+03
         0.3110000000E+08     0.1000000000E+03
         0.3120000000E+08     0.1000000000E+03
         0.3130000000E+08     0.1000000000E+03
         0.3140000000E+08     0.1000000000E+03
         0.3150000000E+08     0.1000000000E+03
         0.3150000000E+08     0.1000000000E+03
         0.3160000000E+08     0.1000000000E+03
         0.3170000000E+08     0.1000000000E+03
         0.3180000000E+08     0.1000000000E+03
         0.3190000000E+08     0.1000000000E+03
         0.3200000000E+08     0.1000000000E+03
         0.3210000000E+08     0.1000000000E+03
         0.3210000000E+08     0.1000000000E+03
         0.3220000000E+08     0.1000000000E+03
         0.3230000000E+08     0.1000000000E+03
         0.3240000000E+08     0.1000000000E+03
         0.3250000000E+08     0.1000000000E+03
         0.3260000000E+08     0.1000000000E+03
         0.3270000000E+08     0.1000000000E+03
         0.3270000000E+08     0.1000000000E+03
         0.3280000000E+08     0.1000000000E+03
         0.3290000000E+08     0.1000000000E+03
         0.3300000000E+08     0.1000000000E+03
         0.3310000000E+08     0.1000000000E+03
         0.3320000000E+08     0.1000000000E+03
         0.3330000000E+08     0.1000000000E+03
         0.3340000000E+08     0.1000000000E+03
         0.3340000000E+08     0.1000000000E+03
         0.3350000000E+08     0.1000000000E+03
         0.3360000000E+08     0.1000000000E+03
         0.3370000000E+08     0.1000000000E+03
         0.3380000000E+08     0.1000000000E+03
         0.3390000000E+08     0.1000000000E+03
         0.3400000000E+08     0.1000000000E+03
         0.3400000000E+08     0.1000000000E+03
         0.3410000000E+08     0.1000000000E+03
         0.3420000000E+08     0.1000000000E+03
         0.3430000000E+08     0.1000000000E+03
         0.3440000000E+08     0.1000000000E+03
         0.3450000000E+08     0.1000000000E+03
         0.3460000000E+08     0.1000000000E+03
         0.3460000000E+08     0.1000000000E+03
         0.3470000000E+08     0.1000000000E+03
         0.3480000000E+08     0.1000000000E+03
         0.3490000000E+08     0.1000000000E+03
         0.3500000000E+08     0.1000000000E+03
         0.3510000000E+08     0.1000000000E+03
         0.3520000000E+08     0.1000000000E+03
         0.3530000000E+08     0.1000000000E+03
         0.3530000000E+08     0.1000000000E+03
         0.3540000000E+08     0.1000000000E+03
         0.3550000000E+08     0.1000000000E+03
         0.3560000000E+08     0.1000000000E+03
         0.3570000000E+08     0.1000000000E+03
         0.3580000000E+08     0.1000000000E+03
         0.3590000000E+08     0.1000000000E+03
         0.3590000000E+08     0.1000000000E+03
         0.3600000000E+08     0.1000000000E+03
         0.3610000000E+08     0.1000000000E+03
         0.3620000000E+08     0.1000000000E+03
         0.3630000000E+08     0.1000000000E+03
         0.3640000000E+08     0.1000000000E+03
         0.3650000000E+08     0.1000000000E+03
         0.3650000000E+08     0.1000000000E+03
         0.3660000000E+08     0.1000000000E+03
         0.3670000000E+08     0.1000000000E+03
         0.3680000000E+08     0.1000000000E+03
         0.3690000000E+08     0.1000000000E+03
         0.3700000000E+08     0.1000000000E+03
         0.3710000000E+08     0.1000000000E+03
         0.3720000000E+08     0.1000000000E+03
         0.3720000000E+08     0.1000000000E+03
         0.3730000000E+08     0.1000000000E+03
         0.3740000000E+08     0.1000000000E+03
         0.3750000000E+08     0.1000000000E+03
         0.3760000000E+08     0.1000000000E+03
         0.3770000000E+08     0.1000000000E+03
         0.3780000000E+08     0.1000000000E+03
         0.3780000000E+08     0.1000000000E+03
         0.3790000000E+08     0.1000000000E+03
         0.3800000000E+08     0.1000000000E+03
         0.3810000000E+08     0.1000000000E+03
         0.3820000000E+08     0.1000000000E+03
         0.3830000000E+08     0.1000000000E+03
         0.3840000000E+08     0.1000000000E+03
         0.3840000000E+08     0.1000000000E+03
         0.3850000000E+08     0.1000000000E+03
         0.3860000000E+08     0.1000000000E+03
         0.3870000000E+08     0.1000000000E+03
         0.3880000000E+08     0.1000000000E+03
         0.3890000000E+08     0.1000000000E+03
         0.3900000000E+08     0.1000000000E+03
         0.3910000000E+08     0.1000000000E+03
         0.3910000000E+08     0.1000000000E+03
         0.3920000000E+08     0.1000000000E+03
         0.3930000000E+08     0.1000000000E+03
         0.3940000000E+08     0.1000000000E+03
         0.3950000000E+08     0.1000000000E+03
         0.3960000000E+08     0.1000000000E+03
         0.3970000000E+08     0.1000000000E+03
         0.3970000000E+08     0.1000000000E+03
         0.3980000000E+08     0.1000000000E+03
         0.3990000000E+08     0.1000000000E+03
         0.4000000000E+08     0.1000000000E+03
         0.4010000000E+08     0.1000000000E+03
         0.4020000000E+08     0.1000000000E+03
         0.4030000000E+08     0.1000000000E+03
         0.4030000000E+08     0.1000000000E+03
         0.4040000000E+08     0.1000000000E+03
         0.4050000000E+08     0.1000000000E+03
         0.4060000000E+08     0.1000000000E+03
         0.4070000000E+08     0.1000000000E+03
         0.4080000000E+08     0.1000000000E+03
         0.4090000000E+08     0.1000000000E+03
         0.4100000000E+08     0.1000000000E+03
         0.4100000000E+08     0.1000000000E+03
         0.4110000000E+08     0.1000000000E+03
         0.4120000000E+08     0.1000000000E+03
         0.4130000000E+08     0.1000000000E+03
         0.4140000000E+08     0.1000000000E+03
         0.4150000000E+08     0.1000000000E+03
         0.4160000000E+08     0.1000000000E+03
         0.4160000000E+08     0.1000000000E+03
         0.4170000000E+08     0.1000000000E+03
         0.4180000000E+08     0.1000000000E+03
         0.4190000000E+08     0.1000000000E+03
         0.4200000000E+08     0.1000000000E+03
         0.4210000000E+08     0.1000000000E+03
         0.4220000000E+08     0.1000000000E+03
         0.4230000000E+08     0.1000000000E+03
         0.4230000000E+08     0.1000000000E+03
         0.4240000000E+08     0.1000000000E+03
         0.4250000000E+08     0.1000000000E+03
         0.4260000000E+08     0.1000000000E+03
         0.4270000000E+08     0.1000000000E+03
         0.4280000000E+08     0.1000000000E+03
         0.4290000000E+08     0.1000000000E+03
         0.4290000000E+08     0.1000000000E+03
         0.4300000000E+08     0.1000000000E+03
         0.4310000000E+08     0.1000000000E+03
         0.4320000000E+08     0.1000000000E+03
         0.4330000000E+08     0.1000000000E+03
         0.4340000000E+08     0.1000000000E+03
         0.4350000000E+08     0.1000000000E+03
         0.4350000000E+08     0.1000000000E+03
         0.4360000000E+08     0.1000000000E+03
         0.4370000000E+08     0.1000000000E+03
         0.4380000000E+08     0.1000000000E+03
         0.4390000000E+08     0.1000000000E+03
         0.4400000000E+08     0.1000000000E+03
         0.4410000000E+08     0.1000000000E+03
         0.4420000000E+08     0.1000000000E+03
         0.4420000000E+08     0.1000000000E+03
         0.4430000000E+08     0.1000000000E+03
         0.4440000000E+08     0.1000000000E+03
         0.4450000000E+08     0.1000000000E+03
         0.4460000000E+08     0.1000000000E+03
         0.4470000000E+08     0.1000000000E+03
         0.4480000000E+08     0.1000000000E+03
         0.4480000000E+08     0.1000000000E+03
         0.4490000000E+08     0.1000000000E+03
         0.4500000000E+08     0.1000000000E+03
         0.4510000000E+08     0.1000000000E+03
         0.4520000000E+08     0.1000000000E+03
         0.4530000000E+08     0.1000000000E+03
         0.4540000000E+08     0.1000000000E+03
         0.4540000000E+08     0.1000000000E+03
         0.4550000000E+08     0.1000000000E+03
         0.4560000000E+08     0.1000000000E+03
         0.4570000000E+08     0.1000000000E+03
         0.4580000000E+08     0.1000000000E+03
         0.4590000000E+08     0.1000000000E+03
         0.4600000000E+08     0.1000000000E+03
         0.4610000000E+08     0.1000000000E+03
         0.4610000000E+08     0.1000000000E+03
         0.4620000000E+08     0.1000000000E+03
         0.4630000000E+08     0.1000000000E+03
         0.4640000000E+08     0.1000000000E+03
         0.4650000000E+08     0.1000000000E+03
         0.4660000000E+08     0.1000000000E+03
         0.4670000000E+08     0.1000000000E+03
         0.4670000000E+08     0.1000000000E+03
         0.4680000000E+08     0.1000000000E+03
         0.4690000000E+08     0.1000000000E+03
         0.4700000000E+08     0.1000000000E+03
         0.4710000000E+08     0.1000000000E+03
         0.4720000000E+08     0.1000000000E+03
         0.4730000000E+08     0.1000000000E+03
         0.4730000000E+08     0.1000000000E+03
         0.4740000000E+08     0.1000000000E+03
         0.4750000000E+08     0.1000000000E+03
         0.4760000000E+08     0.1000000000E+03
         0.4770000000E+08     0.1000000000E+03
         0.4780000000E+08     0.1000000000E+03
         0.4790000000E+08     0.1000000000E+03
         0.4800000000E+08     0.1000000000E+03
         0.4800000000E+08     0.1000000000E+03
         0.4810000000E+08     0.1000000000E+03
         0.4820000000E+08     0.1000000000E+03
         0.4830000000E+08     0.1000000000E+03
         0.4840000000E+08     0.1000000000E+03
         0.4850000000E+08     0.1000000000E+03
         0.4860000000E+08     0.1000000000E+03
         0.4860000000E+08     0.1000000000E+03
         0.4870000000E+08     0.1000000000E+03
         0.4880000000E+08     0.1000000000E+03
         0.4890000000E+08     0.1000000000E+03
         0.4900000000E+08     0.1000000000E+03
         0.4910000000E+08     0.1000000000E+03
         0.4920000000E+08     0.1000000000E+03
         0.4920000000E+08     0.1000000000E+03
         0.4930000000E+08     0.1000000000E+03
         0.4940000000E+08     0.1000000000E+03
         0.4950000000E+08     0.1000000000E+03
         0.4960000000E+08     0.1000000000E+03
         0.4970000000E+08     0.1000000000E+03
         0.4980000000E+08     0.1000000000E+03
         0.4990000000E+08     0.1000000000E+03
         0.4990000000E+08     0.1000000000E+03
         0.5000000000E+08     0.1000000000E+03
         0.5010000000E+08     0.1000000000E+03
         0.5020000000E+08     0.1000000000E+03
         0.5030000000E+08     0.1000000000E+03
         0.5040000000E+08     0.1000000000E+03
         0.5050000000E+08     0.1000000000E+03
         0.5050000000E+08     0.1000000000E+03
         0.5060000000E+08     0.1000000000E+03
         0.5070000000E+08     0.1000000000E+03
         0.5080000000E+08     0.1000000000E+03
         0.5090000000E+08     0.1000000000E+03
         0.5100000000E+08     0.1000000000E+03
         0.5110000000E+08     0.1000000000E+03
         0.5110000000E+08     0.1000000000E+03
         0.5120000000E+08     0.1000000000E+03
         0.5130000000E+08     0.1000000000E+03
         0.5140000000E+08     0.1000000000E+03
         0.5150000000E+08     0.1000000000E+03
         0.5160000000E+08     0.1000000000E+03
         0.5170000000E+08     0.1000000000E+03
         0.5180000000E+08     0.1000000000E+03
         0.5180000000E+08     0.1000000000E+03
         0.5190000000E+08     0.1000000000E+03
         0.5200000000E+08     0.1000000000E+03
         0.5210000000E+08     0.1000000000E+03
         0.5220000000E+08     0.1000000000E+03
         0.5230000000E+08     0.1000000000E+03
         0.5240000000E+08     0.1000000000E+03
         0.5240000000E+08     0.1000000000E+03
         0.5250000000E+08     0.1000000000E+03
         0.5260000000E+08     0.1000000000E+03
         0.5270000000E+08     0.1000000000E+03
         0.5280000000E+08     0.1000000000E+03
         0.5290000000E+08     0.1000000000E+03
         0.5300000000E+08     0.1000000000E+03
         0.5310000000E+08     0.1000000000E+03
         0.5310000000E+08     0.1000000000E+03
         0.5320000000E+08     0.1000000000E+03
         0.5330000000E+08     0.1000000000E+03
         0.5340000000E+08     0.1000000000E+03
         0.5350000000E+08     0.1000000000E+03
         0.5360000000E+08     0.1000000000E+03
         0.5370000000E+08     0.1000000000E+03
         0.5370000000E+08     0.1000000000E+03
         0.5380000000E+08     0.1000000000E+03
         0.5390000000E+08     0.1000000000E+03
         0.5400000000E+08     0.1000000000E+03
         0.5410000000E+08     0.1000000000E+03
         0.5420000000E+08     0.1000000000E+03
         0.5430000000E+08     0.1000000000E+03
         0.5430000000E+08     0.1000000000E+03
         0.5440000000E+08     0.1000000000E+03
         0.5450000000E+08     0.1000000000E+03
         0.5460000000E+08     0.1000000000E+03
         0.5470000000E+08     0.1000000000E+03
         0.5480000000E+08     0.1000000000E+03
         0.5490000000E+08     0.1000000000E+03
         0.5500000000E+08     0.1000000000E+03
         0.5500000000E+08     0.1000000000E+03
         0.5510000000E+08     0.1000000000E+03
         0.5520000000E+08     0.1000000000E+03
         0.5530000000E+08     0.1000000000E+03
         0.5540000000E+08     0.1000000000E+03
         0.5550000000E+08     0.1000000000E+03
         0.5560000000E+08     0.1000000000E+03
         0.5560000000E+08     0.1000000000E+03
         0.5570000000E+08     0.1000000000E+03
         0.5580000000E+08     0.1000000000E+03
         0.5590000000E+08     0.1000000000E+03
         0.5600000000E+08     0.1000000000E+03
         0.5610000000E+08     0.1000000000E+03
         0.5620000000E+08     0.1000000000E+03
         0.5620000000E+08     0.1000000000E+03
         0.5630000000E+08     0.1000000000E+03
         0.5640000000E+08     0.1000000000E+03
         0.5650000000E+08     0.1000000000E+03
         0.5660000000E+08     0.1000000000E+03
         0.5670000000E+08     0.1000000000E+03
         0.5680000000E+08     0.1000000000E+03
         0.5690000000E+08     0.1000000000E+03
         0.5690000000E+08     0.1000000000E+03
         0.5700000000E+08     0.1000000000E+03
         0.5710000000E+08     0.1000000000E+03
         0.5720000000E+08     0.1000000000E+03
         0.5730000000E+08     0.1000000000E+03
         0.5740000000E+08     0.1000000000E+03
         0.5750000000E+08     0.1000000000E+03
         0.5750000000E+08     0.1000000000E+03
         0.5760000000E+08     0.1000000000E+03
         0.5770000000E+08     0.1000000000E+03
         0.5780000000E+08     0.1000000000E+03
         0.5790000000E+08     0.1000000000E+03
         0.5800000000E+08     0.1000000000E+03
         0.5810000000E+08     0.1000000000E+03
         0.5810000000E+08     0.1000000000E+03
         0.5820000000E+08     0.1000000000E+03
         0.5830000000E+08     0.1000000000E+03
         0.5840000000E+08     0.1000000000E+03
         0.5850000000E+08     0.1000000000E+03
         0.5860000000E+08     0.1000000000E+03
         0.5870000000E+08     0.1000000000E+03
         0.5880000000E+08     0.1000000000E+03
         0.5880000000E+08     0.1000000000E+03
         0.5890000000E+08     0.1000000000E+03
         0.5900000000E+08     0.1000000000E+03
         0.5910000000E+08     0.1000000000E+03
         0.5920000000E+08     0.1000000000E+03
         0.5930000000E+08     0.1000000000E+03
         0.5940000000E+08     0.1000000000E+03
         0.5940000000E+08     0.1000000000E+03
         0.5950000000E+08     0.1000000000E+03
         0.5960000000E+08     0.1000000000E+03
         0.5970000000E+08     0.1000000000E+03
         0.5980000000E+08     0.1000000000E+03
         0.5990000000E+08     0.1000000000E+03
         0.6000000000E+08     0.1000000000E+03
         0.6000000000E+08     0.1000000000E+03
         0.6010000000E+08     0.1000000000E+03
         0.6020000000E+08     0.1000000000E+03
         0.6030000000E+08     0.1000000000E+03
         0.6040000000E+08     0.1000000000E+03
         0.6050000000E+08     0.1000000000E+03
         0.6060000000E+08     0.1000000000E+03
         0.6070000000E+08     0.1000000000E+03
         0.6070000000E+08     0.1000000000E+03
         0.6080000000E+08     0.1000000000E+03
         0.6090000000E+08     0.1000000000E+03
         0.6100000000E+08     0.1000000000E+03
         0.6110000000E+08     0.1000000000E+03
         0.6120000000E+08     0.1000000000E+03
         0.6130000000E+08     0.1000000000E+03
         0.6130000000E+08     0.1000000000E+03
         0.6140000000E+08     0.1000000000E+03
         0.6150000000E+08     0.1000000000E+03
         0.6160000000E+08     0.1000000000E+03
         0.6170000000E+08     0.1000000000E+03
         0.6180000000E+08     0.1000000000E+03
         0.6190000000E+08     0.1000000000E+03
         0.6190000000E+08     0.1000000000E+03
         0.6200000000E+08     0.1000000000E+03
         0.6210000000E+08     0.1000000000E+03
         0.6220000000E+08     0.1000000000E+03
         0.6230000000E+08     0.1000000000E+03
         0.6240000000E+08     0.1000000000E+03
         0.6250000000E+08     0.1000000000E+03
         0.6260000000E+08     0.1000000000E+03
         0.6260000000E+08     0.1000000000E+03
         0.6270000000E+08     0.1000000000E+03
         0.6280000000E+08     0.1000000000E+03
         0.6290000000E+08     0.1000000000E+03
         0.6300000000E+08     0.1000000000E+03
         0.6310000000E+08     0.1000000000E+03
         0.6320000000E+08     0.1000000000E+03
         0.6320000000E+08     0.1000000000E+03
         0.6330000000E+08     0.1000000000E+03
         0.6340000000E+08     0.1000000000E+03
         0.6350000000E+08     0.1000000000E+03
         0.6360000000E+08     0.1000000000E+03
         0.6370000000E+08     0.1000000000E+03
         0.6380000000E+08     0.1000000000E+03
         0.6390000000E+08     0.1000000000E+03
         0.6390000000E+08     0.1000000000E+03
         0.6400000000E+08     0.1000000000E+03
         0.6410000000E+08     0.1000000000E+03
         0.6420000000E+08     0.1000000000E+03
         0.6430000000E+08     0.1000000000E+03
         0.6440000000E+08     0.1000000000E+03
         0.6450000000E+08     0.1000000000E+03
         0.6450000000E+08     0.1000000000E+03
         0.6460000000E+08     0.1000000000E+03
         0.6470000000E+08     0.1000000000E+03
         0.6480000000E+08     0.1000000000E+03
         0.6490000000E+08     0.1000000000E+03
         0.6500000000E+08     0.1000000000E+03
         0.6510000000E+08     0.1000000000E+03
         0.6510000000E+08     0.1000000000E+03
         0.6520000000E+08     0.1000000000E+03
         0.6530000000E+08     0.1000000000E+03
         0.6540000000E+08     0.1000000000E+03
         0.6550000000E+08     0.1000000000E+03
         0.6560000000E+08     0.1000000000E+03
         0.6570000000E+08     0.1000000000E+03
         0.6580000000E+08     0.1000000000E+03
         0.6590000000E+08     0.1000000000E+03
         0.6600000000E+08     0.1000000000E+03
         0.6610000000E+08     0.1000000000E+03
         0.6610000000E+08     0.1000000000E+03
         0.6620000000E+08     0.1000000000E+03
         0.6630000000E+08     0.1000000000E+03
         0.6640000000E+08     0.1000000000E+03
         0.6650000000E+08     0.1000000000E+03
         0.6660000000E+08     0.1000000000E+03
         0.6670000000E+08     0.1000000000E+03
         0.6670000000E+08     0.1000000000E+03
         0.6680000000E+08     0.1000000000E+03
         0.6690000000E+08     0.1000000000E+03
         0.6700000000E+08     0.1000000000E+03
         0.6710000000E+08     0.1000000000E+03
         0.6720000000E+08     0.1000000000E+03
         0.6730000000E+08     0.1000000000E+03
         0.6730000000E+08     0.1000000000E+03
         0.6740000000E+08     0.1000000000E+03
         0.6750000000E+08     0.1000000000E+03
         0.6760000000E+08     0.1000000000E+03
         0.6770000000E+08     0.1000000000E+03
         0.6780000000E+08     0.1000000000E+03
         0.6790000000E+08     0.1000000000E+03
         0.6800000000E+08     0.1000000000E+03
         0.6810000000E+08     0.1000000000E+03
         0.6820000000E+08     0.1000000000E+03
         0.6830000000E+08     0.1000000000E+03
         0.6830000000E+08     0.1000000000E+03
         0.6840000000E+08     0.1000000000E+03
         0.6850000000E+08     0.1000000000E+03
         0.6860000000E+08     0.1000000000E+03
         0.6870000000E+08     0.1000000000E+03
         0.6880000000E+08     0.1000000000E+03
         0.6890000000E+08     0.1000000000E+03
         0.6890000000E+08     0.1000000000E+03
         0.6900000000E+08     0.1000000000E+03
         0.6910000000E+08     0.1000000000E+03
         0.6920000000E+08     0.1000000000E+03
         0.6930000000E+08     0.1000000000E+03
         0.6940000000E+08     0.1000000000E+03
         0.6950000000E+08     0.1000000000E+03
         0.6950000000E+08     0.1000000000E+03
         0.6960000000E+08     0.1000000000E+03
         0.6970000000E+08     0.1000000000E+03
         0.6980000000E+08     0.1000000000E+03
         0.6990000000E+08     0.1000000000E+03
         0.7000000000E+08     0.1000000000E+03
         0.7010000000E+08     0.1000000000E+03
         0.7020000000E+08     0.1000000000E+03
         0.7030000000E+08     0.1000000000E+03
         0.7040000000E+08     0.1000000000E+03
         0.7050000000E+08     0.1000000000E+03
         0.7050000000E+08     0.1000000000E+03
         0.7060000000E+08     0.1000000000E+03
         0.7070000000E+08     0.1000000000E+03
         0.7080000000E+08     0.1000000000E+03
         0.7090000000E+08     0.1000000000E+03
         0.7100000000E+08     0.1000000000E+03
         0.7110000000E+08     0.1000000000E+03
         0.7110000000E+08     0.1000000000E+03
         0.7120000000E+08     0.1000000000E+03
         0.7130000000E+08     0.1000000000E+03
         0.7140000000E+08     0.1000000000E+03
         0.7150000000E+08     0.1000000000E+03
         0.7160000000E+08     0.1000000000E+03
         0.7170000000E+08     0.1000000000E+03
         0.7170000000E+08     0.1000000000E+03
         0.7180000000E+08     0.1000000000E+03
         0.7190000000E+08     0.1000000000E+03
         0.7200000000E+08     0.1000000000E+03
         0.7210000000E+08     0.1000000000E+03
         0.7220000000E+08     0.1000000000E+03
         0.7230000000E+08     0.1000000000E+03
         0.7240000000E+08     0.1000000000E+03
         0.7250000000E+08     0.1000000000E+03
         0.7260000000E+08     0.1000000000E+03
         0.7270000000E+08     0.1000000000E+03
         0.7270000000E+08     0.1000000000E+03
         0.7280000000E+08     0.1000000000E+03
         0.7290000000E+08     0.1000000000E+03
         0.7300000000E+08     0.1000000000E+03
         0.7310000000E+08     0.1000000000E+03
         0.7320000000E+08     0.1000000000E+03
         0.7330000000E+08     0.1000000000E+03
         0.7330000000E+08     0.1000000000E+03
         0.7340000000E+08     0.1000000000E+03
         0.7350000000E+08     0.1000000000E+03
         0.7360000000E+08     0.1000000000E+03
         0.7370000000E+08     0.1000000000E+03
         0.7380000000E+08     0.1000000000E+03
         0.7390000000E+08     0.1000000000E+03
         0.7390000000E+08     0.1000000000E+03
         0.7400000000E+08     0.1000000000E+03
         0.7410000000E+08     0.1000000000E+03
         0.7420000000E+08     0.1000000000E+03
         0.7430000000E+08     0.1000000000E+03
         0.7440000000E+08     0.1000000000E+03
         0.7450000000E+08     0.1000000000E+03
         0.7460000000E+08     0.1000000000E+03
         0.7470000000E+08     0.1000000000E+03
         0.7480000000E+08     0.1000000000E+03
         0.7490000000E+08     0.1000000000E+03
         0.7490000000E+08     0.1000000000E+03
         0.7500000000E+08     0.1000000000E+03
         0.7510000000E+08     0.1000000000E+03
         0.7520000000E+08     0.1000000000E+03
         0.7530000000E+08     0.1000000000E+03
         0.7540000000E+08     0.1000000000E+03
         0.7550000000E+08     0.1000000000E+03
         0.7550000000E+08     0.1000000000E+03
         0.7560000000E+08     0.1000000000E+03
         0.7570000000E+08     0.1000000000E+03
         0.7580000000E+08     0.1000000000E+03
         0.7590000000E+08     0.1000000000E+03
         0.7600000000E+08     0.1000000000E+03
         0.7610000000E+08     0.1000000000E+03
         0.7610000000E+08     0.1000000000E+03
         0.7620000000E+08     0.1000000000E+03
         0.7630000000E+08     0.1000000000E+03
         0.7640000000E+08     0.1000000000E+03
         0.7650000000E+08     0.1000000000E+03
         0.7660000000E+08     0.1000000000E+03
         0.7670000000E+08     0.1000000000E+03
         0.7680000000E+08     0.1000000000E+03
         0.7690000000E+08     0.1000000000E+03
         0.7700000000E+08     0.1000000000E+03
         0.7710000000E+08     0.1000000000E+03
         0.7710000000E+08     0.1000000000E+03
         0.7720000000E+08     0.1000000000E+03
         0.7730000000E+08     0.1000000000E+03
         0.7740000000E+08     0.1000000000E+03
         0.7750000000E+08     0.1000000000E+03
         0.7760000000E+08     0.1000000000E+03
         0.7770000000E+08     0.1000000000E+03
         0.7770000000E+08     0.1000000000E+03
         0.7780000000E+08     0.1000000000E+03
         0.7790000000E+08     0.1000000000E+03
         0.7800000000E+08     0.1000000000E+03
         0.7810000000E+08     0.1000000000E+03
         0.7820000000E+08     0.1000000000E+03
         0.7830000000E+08     0.1000000000E+03
         0.7830000000E+08     0.1000000000E+03
         0.7840000000E+08     0.1000000000E+03
         0.7850000000E+08     0.1000000000E+03
         0.7860000000E+08     0.1000000000E+03
         0.7870000000E+08     0.1000000000E+03
         0.7880000000E+08     0.1000000000E+03
         0.7890000000E+08     0.1000000000E+03
         0.7900000000E+08     0.1000000000E+03
         0.7910000000E+08     0.1000000000E+03
         0.7920000000E+08     0.1000000000E+03
         0.7930000000E+08     0.1000000000E+03
         0.7930000000E+08     0.1000000000E+03
         0.7940000000E+08     0.1000000000E+03
         0.7950000000E+08     0.1000000000E+03
         0.7960000000E+08     0.1000000000E+03
         0.7970000000E+08     0.1000000000E+03
         0.7980000000E+08     0.1000000000E+03
         0.7990000000E+08     0.1000000000E+03
         0.7990000000E+08     0.1000000000E+03
         0.8000000000E+08     0.1000000000E+03
         0.8010000000E+08     0.1000000000E+03
         0.8020000000E+08     0.1000000000E+03
         0.8030000000E+08     0.1000000000E+03
         0.8040000000E+08     0.1000000000E+03
         0.8050000000E+08     0.1000000000E+03
         0.8050000000E+08     0.1000000000E+03
         0.8060000000E+08     0.1000000000E+03
         0.8070000000E+08     0.1000000000E+03
         0.8080000000E+08     0.1000000000E+03
         0.8090000000E+08     0.1000000000E+03
         0.8100000000E+08     0.1000000000E+03
         0.8110000000E+08     0.1000000000E+03
         0.8120000000E+08     0.1000000000E+03
         0.8130000000E+08     0.1000000000E+03
         0.8140000000E+08     0.1000000000E+03
         0.8150000000E+08     0.1000000000E+03
         0.8150000000E+08     0.1000000000E+03
         0.8160000000E+08     0.1000000000E+03
         0.8170000000E+08     0.1000000000E+03
         0.8180000000E+08     0.1000000000E+03
         0.8190000000E+08     0.1000000000E+03
         0.8200000000E+08     0.1000000000E+03
         0.8210000000E+08     0.1000000000E+03
         0.8210000000E+08     0.1000000000E+03
         0.8220000000E+08     0.1000000000E+03
         0.8230000000E+08     0.1000000000E+03
         0.8240000000E+08     0.1000000000E+03
         0.8250000000E+08     0.1000000000E+03
         0.8260000000E+08     0.1000000000E+03
         0.8270000000E+08     0.1000000000E+03
         0.8270000000E+08     0.1000000000E+03
         0.8280000000E+08     0.1000000000E+03
         0.8290000000E+08     0.1000000000E+03
         0.8300000000E+08     0.1000000000E+03
         0.8310000000E+08     0.1000000000E+03
         0.8320000000E+08     0.1000000000E+03
         0.8330000000E+08     0.1000000000E+03
         0.8340000000E+08     0.1000000000E+03
         0.8350000000E+08     0.1000000000E+03
         0.8360000000E+08     0.1000000000E+03
         0.8370000000E+08     0.1000000000E+03
         0.8370000000E+08     0.1000000000E+03
         0.8380000000E+08     0.1000000000E+03
         0.8390000000E+08     0.1000000000E+03
         0.8400000000E+08     0.1000000000E+03
         0.8410000000E+08     0.1000000000E+03
         0.8420000000E+08     0.1000000000E+03
         0.8430000000E+08     0.1000000000E+03
         0.8430000000E+08     0.1000000000E+03
         0.8440000000E+08     0.1000000000E+03
         0.8450000000E+08     0.1000000000E+03
         0.8460000000E+08     0.1000000000E+03
         0.8470000000E+08     0.1000000000E+03
         0.8480000000E+08     0.1000000000E+03
         0.8490000000E+08     0.1000000000E+03
         0.8490000000E+08     0.1000000000E+03
         0.8500000000E+08     0.1000000000E+03
         0.8510000000E+08     0.1000000000E+03
         0.8520000000E+08     0.1000000000E+03
         0.8530000000E+08     0.1000000000E+03
         0.8540000000E+08     0.1000000000E+03
         0.8550000000E+08     0.1000000000E+03
         0.8560000000E+08     0.1000000000E+03
         0.8570000000E+08     0.1000000000E+03
         0.8580000000E+08     0.1000000000E+03
         0.8590000000E+08     0.1000000000E+03
         0.8590000000E+08     0.1000000000E+03
         0.8600000000E+08     0.1000000000E+03
         0.8610000000E+08     0.1000000000E+03
         0.8620000000E+08     0.1000000000E+03
         0.8630000000E+08     0.1000000000E+03
         0.8640000000E+08     0.1000000000E+03
         0.8650000000E+08     0.1000000000E+03
         0.8650000000E+08     0.1000000000E+03
         0.8660000000E+08     0.1000000000E+03
         0.8670000000E+08     0.1000000000E+03
         0.8680000000E+08     0.1000000000E+03
         0.8690000000E+08     0.1000000000E+03
         0.8700000000E+08     0.1000000000E+03
         0.8710000000E+08     0.1000000000E+03
         0.8710000000E+08     0.1000000000E+03
         0.8720000000E+08     0.1000000000E+03
         0.8730000000E+08     0.1000000000E+03
         0.8740000000E+08     0.1000000000E+03
         0.8750000000E+08     0.1000000000E+03
         0.8760000000E+08     0.1000000000E+03
         0.8770000000E+08     0.1000000000E+03
         0.8780000000E+08     0.1000000000E+03
         0.8790000000E+08     0.1000000000E+03
         0.8800000000E+08     0.1000000000E+03
         0.8810000000E+08     0.1000000000E+03
         0.8810000000E+08     0.1000000000E+03
         0.8820000000E+08     0.1000000000E+03
         0.8830000000E+08     0.1000000000E+03
         0.8840000000E+08     0.1000000000E+03
         0.8850000000E+08     0.1000000000E+03
         0.8860000000E+08     0.1000000000E+03
         0.8870000000E+08     0.1000000000E+03
         0.8870000000E+08     0.1000000000E+03
         0.8880000000E+08     0.1000000000E+03
         0.8890000000E+08     0.1000000000E+03
         0.8900000000E+08     0.1000000000E+03
         0.8910000000E+08     0.1000000000E+03
         0.8920000000E+08     0.1000000000E+03
         0.8930000000E+08     0.1000000000E+03
         0.8930000000E+08     0.1000000000E+03
         0.8940000000E+08     0.1000000000E+03
         0.8950000000E+08     0.1000000000E+03
         0.8960000000E+08     0.1000000000E+03
         0.8970000000E+08     0.1000000000E+03
         0.8980000000E+08     0.1000000000E+03
         0.8990000000E+08     0.1000000000E+03
         0.9000000000E+08     0.1000000000E+03
         0.9010000000E+08     0.1000000000E+03
         0.9020000000E+08     0.1000000000E+03
         0.9030000000E+08     0.1000000000E+03
         0.9030000000E+08     0.1000000000E+03
         0.9040000000E+08     0.1000000000E+03
         0.9050000000E+08     0.1000000000E+03
         0.9060000000E+08     0.1000000000E+03
         0.9070000000E+08     0.1000000000E+03
         0.9080000000E+08     0.1000000000E+03
         0.9090000000E+08     0.1000000000E+03
         0.9090000000E+08     0.1000000000E+03
         0.9100000000E+08     0.1000000000E+03
         0.9110000000E+08     0.1000000000E+03
         0.9120000000E+08     0.1000000000E+03
         0.9130000000E+08     0.1000000000E+03
         0.9140000000E+08     0.1000000000E+03
         0.9150000000E+08     0.1000000000E+03
         0.9150000000E+08     0.1000000000E+03
         0.9160000000E+08     0.1000000000E+03
         0.9170000000E+08     0.1000000000E+03
         0.9180000000E+08     0.1000000000E+03
         0.9190000000E+08     0.1000000000E+03
         0.9200000000E+08     0.1000000000E+03
         0.9210000000E+08     0.1000000000E+03
         0.9220000000E+08     0.1000000000E+03
         0.9230000000E+08     0.1000000000E+03
         0.9240000000E+08     0.1000000000E+03
         0.9250000000E+08     0.1000000000E+03
         0.9250000000E+08     0.1000000000E+03
         0.9260000000E+08     0.1000000000E+03
         0.9270000000E+08     0.1000000000E+03
         0.9280000000E+08     0.1000000000E+03
         0.9290000000E+08     0.1000000000E+03
         0.9300000000E+08     0.1000000000E+03
         0.9310000000E+08     0.1000000000E+03
         0.9310000000E+08     0.1000000000E+03
         0.9320000000E+08     0.1000000000E+03
         0.9330000000E+08     0.1000000000E+03
         0.9340000000E+08     0.1000000000E+03
         0.9350000000E+08     0.1000000000E+03
         0.9360000000E+08     0.1000000000E+03
         0.9370000000E+08     0.1000000000E+03
         0.9370000000E+08     0.1000000000E+03
         0.9380000000E+08     0.1000000000E+03
         0.9390000000E+08     0.1000000000E+03
         0.9400000000E+08     0.1000000000E+03
         0.9410000000E+08     0.1000000000E+03
         0.9420000000E+08     0.1000000000E+03
         0.9430000000E+08     0.1000000000E+03
         0.9440000000E+08     0.1000000000E+03
         0.9450000000E+08     0.1000000000E+03
         0.9460000000E+08     0.1000000000E+03
         0.9470000000E+08     0.1000000000E+03
         0.9470000000E+08     0.1000000000E+03
         0.9480000000E+08     0.1000000000E+03
         0.9490000000E+08     0.1000000000E+03
         0.9500000000E+08     0.1000000000E+03
         0.9510000000E+08     0.1000000000E+03
         0.9520000000E+08     0.1000000000E+03
         0.9530000000E+08     0.1000000000E+03
         0.9530000000E+08     0.1000000000E+03
         0.9540000000E+08     0.1000000000E+03
         0.9550000000E+08     0.1000000000E+03
         0.9560000000E+08     0.1000000000E+03
         0.9570000000E+08     0.1000000000E+03
         0.9580000000E+08     0.1000000000E+03
         0.9590000000E+08     0.1000000000E+03
         0.9590000000E+08     0.1000000000E+03
         0.9600000000E+08     0.1000000000E+03
         0.9610000000E+08     0.1000000000E+03
         0.9620000000E+08     0.1000000000E+03
         0.9630000000E+08     0.1000000000E+03
         0.9640000000E+08     0.1000000000E+03
         0.9650000000E+08     0.1000000000E+03
         0.9660000000E+08     0.1000000000E+03
         0.9670000000E+08     0.1000000000E+03
         0.9680000000E+08     0.1000000000E+03
         0.9690000000E+08     0.1000000000E+03
         0.9690000000E+08     0.1000000000E+03
         0.9700000000E+08     0.1000000000E+03
         0.9710000000E+08     0.1000000000E+03
         0.9720000000E+08     0.1000000000E+03
         0.9730000000E+08     0.1000000000E+03
         0.9740000000E+08     0.1000000000E+03
         0.9750000000E+08     0.1000000000E+03
         0.9750000000E+08     0.1000000000E+03
         0.9760000000E+08     0.1000000000E+03
         0.9770000000E+08     0.1000000000E+03
         0.9780000000E+08     0.1000000000E+03
         0.9790000000E+08     0.1000000000E+03
         0.9800000000E+08     0.1000000000E+03
         0.9810000000E+08     0.1000000000E+03
         0.9810000000E+08     0.1000000000E+03
         0.9820000000E+08     0.1000000000E+03
         0.9830000000E+08     0.1000000000E+03
         0.9840000000E+08     0.1000000000E+03
         0.9850000000E+08     0.1000000000E+03
         0.9860000000E+08     0.1000000000E+03
         0.9870000000E+08     0.1000000000E+03
         0.9880000000E+08     0.1000000000E+03
         0.9890000000E+08     0.1000000000E+03
         0.9900000000E+08     0.1000000000E+03
         0.9910000000E+08     0.1000000000E+03
         0.9910000000E+08     0.1000000000E+03
         0.9920000000E+08     0.1000000000E+03
         0.9930000000E+08     0.1000000000E+03
         0.9940000000E+08     0.1000000000E+03
         0.9950000000E+08     0.1000000000E+03
         0.9960000000E+08     0.1000000000E+03
         0.9970000000E+08     0.1000000000E+03
         0.9970000000E+08     0.1000000000E+03
         0.9980000000E+08     0.1000000000E+03
         0.9990000000E+08     0.1000000000E+03
         0.1000000000E+09     0.1000000000E+03
         0.1001000000E+09     0.1000000000E+03
         0.1002000000E+09     0.1000000000E+03
         0.1003000000E+09     0.1000000000E+03
         0.1003000000E+09     0.1000000000E+03
         0.1004000000E+09     0.1000000000E+03
         0.1005000000E+09     0.1000000000E+03
         0.1006000000E+09     0.1000000000E+03
         0.1007000000E+09     0.1000000000E+03
         0.1008000000E+09     0.1000000000E+03
         0.1009000000E+09     0.1000000000E+03
         0.1010000000E+09     0.1000000000E+03
         0.1011000000E+09     0.1000000000E+03
         0.1012000000E+09     0.1000000000E+03
         0.1013000000E+09     0.1000000000E+03
         0.1013000000E+09     0.1000000000E+03
         0.1014000000E+09     0.1000000000E+03
         0.1015000000E+09     0.1000000000E+03
         0.1016000000E+09     0.1000000000E+03
         0.1017000000E+09     0.1000000000E+03
         0.1018000000E+09     0.1000000000E+03
         0.1019000000E+09     0.1000000000E+03
         0.1019000000E+09     0.1000000000E+03
         0.1020000000E+09     0.1000000000E+03
         0.1021000000E+09     0.1000000000E+03
         0.1022000000E+09     0.1000000000E+03
         0.1023000000E+09     0.1000000000E+03
         0.1024000000E+09     0.1000000000E+03
         0.1025000000E+09     0.1000000000E+03
         0.1025000000E+09     0.1000000000E+03
         0.1026000000E+09     0.1000000000E+03
         0.1027000000E+09     0.1000000000E+03
         0.1028000000E+09     0.1000000000E+03
         0.1029000000E+09     0.1000000000E+03
         0.1030000000E+09     0.1000000000E+03
         0.1031000000E+09     0.1000000000E+03
         0.1032000000E+09     0.1000000000E+03
         0.1033000000E+09     0.1000000000E+03
         0.1034000000E+09     0.1000000000E+03
         0.1035000000E+09     0.1000000000E+03
         0.1035000000E+09     0.1000000000E+03
         0.1036000000E+09     0.1000000000E+03
         0.1037000000E+09     0.1000000000E+03
         0.1038000000E+09     0.1000000000E+03
         0.1039000000E+09     0.1000000000E+03
         0.1040000000E+09     0.1000000000E+03
         0.1041000000E+09     0.1000000000E+03
         0.1041000000E+09     0.1000000000E+03
         0.1042000000E+09     0.1000000000E+03
         0.1043000000E+09     0.1000000000E+03
         0.1044000000E+09     0.1000000000E+03
         0.1045000000E+09     0.1000000000E+03
         0.1046000000E+09     0.1000000000E+03
         0.1047000000E+09     0.1000000000E+03
         0.1047000000E+09     0.1000000000E+03
         0.1048000000E+09     0.1000000000E+03
         0.1049000000E+09     0.1000000000E+03
         0.1050000000E+09     0.1000000000E+03
         0.1051000000E+09     0.1000000000E+03
         0.1052000000E+09     0.1000000000E+03
         0.1053000000E+09     0.1000000000E+03
         0.1054000000E+09     0.1000000000E+03
         0.1055000000E+09     0.1000000000E+03
         0.1056000000E+09     0.1000000000E+03
         0.1057000000E+09     0.1000000000E+03
         0.1057000000E+09     0.1000000000E+03
         0.1058000000E+09     0.1000000000E+03
         0.1059000000E+09     0.1000000000E+03
         0.1060000000E+09     0.1000000000E+03
         0.1061000000E+09     0.1000000000E+03
         0.1062000000E+09     0.1000000000E+03
         0.1063000000E+09     0.1000000000E+03
         0.1063000000E+09     0.1000000000E+03
         0.1064000000E+09     0.1000000000E+03
         0.1065000000E+09     0.1000000000E+03
         0.1066000000E+09     0.1000000000E+03
         0.1067000000E+09     0.1000000000E+03
         0.1068000000E+09     0.1000000000E+03
         0.1069000000E+09     0.1000000000E+03
         0.1069000000E+09     0.1000000000E+03
         0.1070000000E+09     0.1000000000E+03
         0.1071000000E+09     0.1000000000E+03
         0.1072000000E+09     0.1000000000E+03
         0.1073000000E+09     0.1000000000E+03
         0.1074000000E+09     0.1000000000E+03
         0.1075000000E+09     0.1000000000E+03
         0.1076000000E+09     0.1000000000E+03
         0.1077000000E+09     0.1000000000E+03
         0.1078000000E+09     0.1000000000E+03
         0.1079000000E+09     0.1000000000E+03
         0.1079000000E+09     0.1000000000E+03
         0.1080000000E+09     0.1000000000E+03
         0.1081000000E+09     0.1000000000E+03
         0.1082000000E+09     0.1000000000E+03
         0.1083000000E+09     0.1000000000E+03
         0.1084000000E+09     0.1000000000E+03
         0.1085000000E+09     0.1000000000E+03
         0.1085000000E+09     0.1000000000E+03
         0.1086000000E+09     0.1000000000E+03
         0.1087000000E+09     0.1000000000E+03
         0.1088000000E+09     0.1000000000E+03
         0.1089000000E+09     0.1000000000E+03
         0.1090000000E+09     0.1000000000E+03
         0.1091000000E+09     0.1000000000E+03
         0.1091000000E+09     0.1000000000E+03
         0.1092000000E+09     0.1000000000E+03
         0.1093000000E+09     0.1000000000E+03
         0.1094000000E+09     0.1000000000E+03
         0.1095000000E+09     0.1000000000E+03
         0.1096000000E+09     0.1000000000E+03
         0.1097000000E+09     0.1000000000E+03
         0.1098000000E+09     0.1000000000E+03
         0.1099000000E+09     0.1000000000E+03
         0.1100000000E+09     0.1000000000E+03
         0.1101000000E+09     0.1000000000E+03
         0.1101000000E+09     0.1000000000E+03
         0.1102000000E+09     0.1000000000E+03
         0.1103000000E+09     0.1000000000E+03
         0.1104000000E+09     0.1000000000E+03
         0.1105000000E+09     0.1000000000E+03
         0.1106000000E+09     0.1000000000E+03
         0.1107000000E+09     0.1000000000E+03
         0.1107000000E+09     0.1000000000E+03
         0.1108000000E+09     0.1000000000E+03
         0.1109000000E+09     0.1000000000E+03
         0.1110000000E+09     0.1000000000E+03
         0.1111000000E+09     0.1000000000E+03
         0.1112000000E+09     0.1000000000E+03
         0.1113000000E+09     0.1000000000E+03
         0.1113000000E+09     0.1000000000E+03
         0.1114000000E+09     0.1000000000E+03
         0.1115000000E+09     0.1000000000E+03
         0.1116000000E+09     0.1000000000E+03
         0.1117000000E+09     0.1000000000E+03
         0.1118000000E+09     0.1000000000E+03
         0.1119000000E+09     0.1000000000E+03
         0.1120000000E+09     0.1000000000E+03
         0.1121000000E+09     0.1000000000E+03
         0.1122000000E+09     0.1000000000E+03
         0.1123000000E+09     0.1000000000E+03
         0.1123000000E+09     0.1000000000E+03
         0.1124000000E+09     0.1000000000E+03
         0.1125000000E+09     0.1000000000E+03
         0.1126000000E+09     0.1000000000E+03
         0.1127000000E+09     0.1000000000E+03
         0.1128000000E+09     0.1000000000E+03
         0.1129000000E+09     0.1000000000E+03
         0.1129000000E+09     0.1000000000E+03
         0.1130000000E+09     0.1000000000E+03
         0.1131000000E+09     0.1000000000E+03
         0.1132000000E+09     0.1000000000E+03
         0.1133000000E+09     0.1000000000E+03
         0.1134000000E+09     0.1000000000E+03
         0.1135000000E+09     0.1000000000E+03
         0.1135000000E+09     0.1000000000E+03
         0.1136000000E+09     0.1000000000E+03
         0.1137000000E+09     0.1000000000E+03
         0.1138000000E+09     0.1000000000E+03
         0.1139000000E+09     0.1000000000E+03
         0.1140000000E+09     0.1000000000E+03
         0.1141000000E+09     0.1000000000E+03
         0.1142000000E+09     0.1000000000E+03
         0.1143000000E+09     0.1000000000E+03
         0.1144000000E+09     0.1000000000E+03
         0.1145000000E+09     0.1000000000E+03
         0.1145000000E+09     0.1000000000E+03
         0.1146000000E+09     0.1000000000E+03
         0.1147000000E+09     0.1000000000E+03
         0.1148000000E+09     0.1000000000E+03
         0.1149000000E+09     0.1000000000E+03
         0.1150000000E+09     0.1000000000E+03
         0.1151000000E+09     0.1000000000E+03
         0.1151000000E+09     0.1000000000E+03
         0.1152000000E+09     0.1000000000E+03
         0.1153000000E+09     0.1000000000E+03
         0.1154000000E+09     0.1000000000E+03
         0.1155000000E+09     0.1000000000E+03
         0.1156000000E+09     0.1000000000E+03
         0.1157000000E+09     0.1000000000E+03
         0.1157000000E+09     0.1000000000E+03
         0.1158000000E+09     0.1000000000E+03
         0.1159000000E+09     0.1000000000E+03
         0.1160000000E+09     0.1000000000E+03
         0.1161000000E+09     0.1000000000E+03
         0.1162000000E+09     0.1000000000E+03
         0.1163000000E+09     0.1000000000E+03
         0.1164000000E+09     0.1000000000E+03
         0.1165000000E+09     0.1000000000E+03
         0.1166000000E+09     0.1000000000E+03
         0.1167000000E+09     0.1000000000E+03
         0.1167000000E+09     0.1000000000E+03
         0.1168000000E+09     0.1000000000E+03
         0.1169000000E+09     0.1000000000E+03
         0.1170000000E+09     0.1000000000E+03
         0.1171000000E+09     0.1000000000E+03
         0.1172000000E+09     0.1000000000E+03
         0.1173000000E+09     0.1000000000E+03
         0.1173000000E+09     0.1000000000E+03
         0.1174000000E+09     0.1000000000E+03
         0.1175000000E+09     0.1000000000E+03
         0.1176000000E+09     0.1000000000E+03
         0.1177000000E+09     0.1000000000E+03
         0.1178000000E+09     0.1000000000E+03
         0.1179000000E+09     0.1000000000E+03
         0.1179000000E+09     0.1000000000E+03
         0.1180000000E+09     0.1000000000E+03
         0.1181000000E+09     0.1000000000E+03
         0.1182000000E+09     0.1000000000E+03
         0.1183000000E+09     0.1000000000E+03
         0.1184000000E+09     0.1000000000E+03
         0.1185000000E+09     0.1000000000E+03
         0.1186000000E+09     0.1000000000E+03
         0.1187000000E+09     0.1000000000E+03
         0.1188000000E+09     0.1000000000E+03
         0.1189000000E+09     0.1000000000E+03
         0.1189000000E+09     0.1000000000E+03
         0.1190000000E+09     0.1000000000E+03
         0.1191000000E+09     0.1000000000E+03
         0.1192000000E+09     0.1000000000E+03
         0.1193000000E+09     0.1000000000E+03
         0.1194000000E+09     0.1000000000E+03
         0.1195000000E+09     0.1000000000E+03
         0.1195000000E+09     0.1000000000E+03
         0.1196000000E+09     0.1000000000E+03
         0.1197000000E+09     0.1000000000E+03
         0.1198000000E+09     0.1000000000E+03
         0.1199000000E+09     0.1000000000E+03
         0.1200000000E+09     0.1000000000E+03
         0.1201000000E+09     0.1000000000E+03
         0.1201000000E+09     0.1000000000E+03
         0.1202000000E+09     0.1000000000E+03
         0.1203000000E+09     0.1000000000E+03
         0.1204000000E+09     0.1000000000E+03
         0.1205000000E+09     0.1000000000E+03
         0.1206000000E+09     0.1000000000E+03
         0.1207000000E+09     0.1000000000E+03
         0.1208000000E+09     0.1000000000E+03
         0.1209000000E+09     0.1000000000E+03
         0.1210000000E+09     0.1000000000E+03
         0.1211000000E+09     0.1000000000E+03
         0.1211000000E+09     0.1000000000E+03
         0.1212000000E+09     0.1000000000E+03
         0.1213000000E+09     0.1000000000E+03
         0.1214000000E+09     0.1000000000E+03
         0.1215000000E+09     0.1000000000E+03
         0.1216000000E+09     0.1000000000E+03
         0.1217000000E+09     0.1000000000E+03
         0.1217000000E+09     0.1000000000E+03
         0.1218000000E+09     0.1000000000E+03
         0.1219000000E+09     0.1000000000E+03
         0.1220000000E+09     0.1000000000E+03
         0.1221000000E+09     0.1000000000E+03
         0.1222000000E+09     0.1000000000E+03
         0.1223000000E+09     0.1000000000E+03
         0.1223000000E+09     0.1000000000E+03
         0.1224000000E+09     0.1000000000E+03
         0.1225000000E+09     0.1000000000E+03
         0.1226000000E+09     0.1000000000E+03
         0.1227000000E+09     0.1000000000E+03
         0.1228000000E+09     0.1000000000E+03
         0.1229000000E+09     0.1000000000E+03
         0.1230000000E+09     0.1000000000E+03
         0.1231000000E+09     0.1000000000E+03
         0.1232000000E+09     0.1000000000E+03
         0.1233000000E+09     0.1000000000E+03
         0.1233000000E+09     0.1000000000E+03
         0.1234000000E+09     0.1000000000E+03
         0.1235000000E+09     0.1000000000E+03
         0.1236000000E+09     0.1000000000E+03
         0.1237000000E+09     0.1000000000E+03
         0.1238000000E+09     0.1000000000E+03
         0.1239000000E+09     0.1000000000E+03
         0.1239000000E+09     0.1000000000E+03
         0.1240000000E+09     0.1000000000E+03
         0.1241000000E+09     0.1000000000E+03
         0.1242000000E+09     0.1000000000E+03
         0.1243000000E+09     0.1000000000E+03
         0.1244000000E+09     0.1000000000E+03
         0.1245000000E+09     0.1000000000E+03
         0.1245000000E+09     0.1000000000E+03
         0.1246000000E+09     0.1000000000E+03
         0.1247000000E+09     0.1000000000E+03
         0.1248000000E+09     0.1000000000E+03
         0.1249000000E+09     0.1000000000E+03
         0.1250000000E+09     0.1000000000E+03
         0.1251000000E+09     0.1000000000E+03
         0.1252000000E+09     0.1000000000E+03
         0.1253000000E+09     0.1000000000E+03
         0.1254000000E+09     0.1000000000E+03
         0.1255000000E+09     0.1000000000E+03
         0.1255000000E+09     0.1000000000E+03
         0.1256000000E+09     0.1000000000E+03
         0.1257000000E+09     0.1000000000E+03
         0.1258000000E+09     0.1000000000E+03
         0.1259000000E+09     0.1000000000E+03
         0.1260000000E+09     0.1000000000E+03



            AREAL INFILTRATION RATE
 READING ON UNIT   19 WITH FORMAT: (10F4.0)            

            1           2           3           4           5           6           7           8           9          10
 ........................................................................................................................
   1   1.0000E-10  2.0000E-10   0.000       0.000       0.000       0.000       0.000       0.000       0.000       0.000    
   2   2.0000E-10  1.0000E-10  2.0000E-10   0.000       0.000      8.0000E-10  8.0000E-10  5.0000E-10   0.000       0.000    
   3    0.000      5.0000E-10  1.0000E-10  1.0000E-10  8.0000E-10  8.0000E-10  5.0000E-10  5.0000E-10   0.000       0.000    
   4   8.0000E-10  5.0000E-10  1.0000E-10  1.0000E-10  1.0000E-10  1.0000E-10  1.0000E-10  1.0000E-10  2.0000E-10   0.000    
   5   8.0000E-10  5.0000E-10  1.0000E-10  1.0000E-10  1.0000E-10  1.0000E-10  1.0000E-10  1.0000E-10  1.0000E-10  1.0000E-10
   6   8.0000E-10  5.0000E-10  5.0000E-10  2.0000E-10  2.0000E-10  1.0000E-10  1.0000E-10  1.0000E-10  1.0000E-10  5.0000E-10
   7   8.0000E-10  5.0000E-10  5.0000E-10  2.0000E-10  2.0000E-10  1.0000E-10  1.0000E-10  2.0000E-10  2.0000E-10   0.000    
   8    0.000      5.0000E-10  5.0000E-10  2.0000E-10  2.0000E-10  1.0000E-10  1.0000E-10  2.0000E-10  5.0000E-10   0.000    
   9    0.000      5.0000E-10  5.0000E-10  2.0000E-10  2.0000E-10  1.0000E-10  1.0000E-10  2.0000E-10  5.0000E-10   0.000    
  10    0.000      5.0000E-10  5.0000E-10  2.0000E-10  2.0000E-10  1.0000E-10  1.0000E-10  2.0000E-10  5.0000E-10  8.0000E-10
  11    0.000      1.0000E-10  1.0000E-10  1.0000E-10  1.0000E-10  1.0000E-10  1.0000E-10  2.0000E-10  5.0000E-10   0.000    
  12   1.0000E-10  1.0000E-10  1.0000E-10  1.0000E-10  1.0000E-10  1.0000E-10  1.0000E-10  1.0000E-10  2.0000E-10   0.000    
  13   1.0000E-10  1.0000E-10  2.0000E-10  2.0000E-10  2.0000E-10  2.0000E-10  2.0000E-10  1.0000E-10  1.0000E-10   0.000    
  14    0.000      2.0000E-10  5.0000E-10  5.0000E-10  5.0000E-10  5.0000E-10  5.0000E-10  2.0000E-10  1.0000E-10   0.000    
  15    0.000       0.000      8.0000E-10  8.0000E-10  8.0000E-10  8.0000E-10   0.000       0.000       0.000       0.000    

                  ET RATE =  1.000000E-08

      ET EXTINCTION DEPTH =  0.500000    

 EXTINCTION WATER CONTENT =  0.200000    

EXTINCTION WATER CONTENT FOR CELL AT ROW     1, COLUMN     1 IS LESS THAN RESIDUAL WATER CONTENT-- SETTING EXTINCTION WATER CONTENT EQUAL TO RESIDUAL WATER CONTENT

EXTINCTION WATER CONTENT FOR CELL AT ROW     1, COLUMN     2 IS LESS THAN RESIDUAL WATER CONTENT-- SETTING EXTINCTION WATER CONTENT EQUAL TO RESIDUAL WATER CONTENT

EXTINCTION WATER CONTENT FOR CELL AT ROW     2, COLUMN     1 IS LESS THAN RESIDUAL WATER CONTENT-- SETTING EXTINCTION WATER CONTENT EQUAL TO RESIDUAL WATER CONTENT

EXTINCTION WATER CONTENT FOR CELL AT ROW     2, COLUMN     2 IS LESS THAN RESIDUAL WATER CONTENT-- SETTING EXTINCTION WATER CONTENT EQUAL TO RESIDUAL WATER CONTENT

EXTINCTION WATER CONTENT FOR CELL AT ROW     2, COLUMN     3 IS LESS THAN RESIDUAL WATER CONTENT-- SETTING EXTINCTION WATER CONTENT EQUAL TO RESIDUAL WATER CONTENT

EXTINCTION WATER CONTENT FOR CELL AT ROW     2, COLUMN     6 IS LESS THAN RESIDUAL WATER CONTENT-- SETTING EXTINCTION WATER CONTENT EQUAL TO RESIDUAL WATER CONTENT

EXTINCTION WATER CONTENT FOR CELL AT ROW     2, COLUMN     7 IS LESS THAN RESIDUAL WATER CONTENT-- SETTING EXTINCTION WATER CONTENT EQUAL TO RESIDUAL WATER CONTENT

EXTINCTION WATER CONTENT FOR CELL AT ROW     2, COLUMN     8 IS LESS THAN RESIDUAL WATER CONTENT-- SETTING EXTINCTION WATER CONTENT EQUAL TO RESIDUAL WATER CONTENT

EXTINCTION WATER CONTENT FOR CELL AT ROW     3, COLUMN     2 IS LESS THAN RESIDUAL WATER CONTENT-- SETTING EXTINCTION WATER CONTENT EQUAL TO RESIDUAL WATER CONTENT

EXTINCTION WATER CONTENT FOR CELL AT ROW     3, COLUMN     3 IS LESS THAN RESIDUAL WATER CONTENT-- SETTING EXTINCTION WATER CONTENT EQUAL TO RESIDUAL WATER CONTENT

EXTINCTION WATER CONTENT FOR CELL AT ROW     3, COLUMN     4 IS LESS THAN RESIDUAL WATER CONTENT-- SETTING EXTINCTION WATER CONTENT EQUAL TO RESIDUAL WATER CONTENT

EXTINCTION WATER CONTENT FOR CELL AT ROW     3, COLUMN     5 IS LESS THAN RESIDUAL WATER CONTENT-- SETTING EXTINCTION WATER CONTENT EQUAL TO RESIDUAL WATER CONTENT

EXTINCTION WATER CONTENT FOR CELL AT ROW     3, COLUMN     6 IS LESS THAN RESIDUAL WATER CONTENT-- SETTING EXTINCTION WATER CONTENT EQUAL TO RESIDUAL WATER CONTENT

EXTINCTION WATER CONTENT FOR CELL AT ROW     3, COLUMN     7 IS LESS THAN RESIDUAL WATER CONTENT-- SETTING EXTINCTION WATER CONTENT EQUAL TO RESIDUAL WATER CONTENT

EXTINCTION WATER CONTENT FOR CELL AT ROW     3, COLUMN     8 IS LESS THAN RESIDUAL WATER CONTENT-- SETTING EXTINCTION WATER CONTENT EQUAL TO RESIDUAL WATER CONTENT

EXTINCTION WATER CONTENT FOR CELL AT ROW     4, COLUMN     1 IS LESS THAN RESIDUAL WATER CONTENT-- SETTING EXTINCTION WATER CONTENT EQUAL TO RESIDUAL WATER CONTENT

EXTINCTION WATER CONTENT FOR CELL AT ROW     4, COLUMN     2 IS LESS THAN RESIDUAL WATER CONTENT-- SETTING EXTINCTION WATER CONTENT EQUAL TO RESIDUAL WATER CONTENT

EXTINCTION WATER CONTENT FOR CELL AT ROW     4, COLUMN     3 IS LESS THAN RESIDUAL WATER CONTENT-- SETTING EXTINCTION WATER CONTENT EQUAL TO RESIDUAL WATER CONTENT

EXTINCTION WATER CONTENT FOR CELL AT ROW     4, COLUMN     4 IS LESS THAN RESIDUAL WATER CONTENT-- SETTING EXTINCTION WATER CONTENT EQUAL TO RESIDUAL WATER CONTENT

EXTINCTION WATER CONTENT FOR CELL AT ROW     4, COLUMN     5 IS LESS THAN RESIDUAL WATER CONTENT-- SETTING EXTINCTION WATER CONTENT EQUAL TO RESIDUAL WATER CONTENT

EXTINCTION WATER CONTENT FOR CELL AT ROW     4, COLUMN     6 IS LESS THAN RESIDUAL WATER CONTENT-- SETTING EXTINCTION WATER CONTENT EQUAL TO RESIDUAL WATER CONTENT

EXTINCTION WATER CONTENT FOR CELL AT ROW     4, COLUMN     7 IS LESS THAN RESIDUAL WATER CONTENT-- SETTING EXTINCTION WATER CONTENT EQUAL TO RESIDUAL WATER CONTENT

EXTINCTION WATER CONTENT FOR CELL AT ROW     4, COLUMN     8 IS LESS THAN RESIDUAL WATER CONTENT-- SETTING EXTINCTION WATER CONTENT EQUAL TO RESIDUAL WATER CONTENT

EXTINCTION WATER CONTENT FOR CELL AT ROW     4, COLUMN     9 IS LESS THAN RESIDUAL WATER CONTENT-- SETTING EXTINCTION WATER CONTENT EQUAL TO RESIDUAL WATER CONTENT

EXTINCTION WATER CONTENT FOR CELL AT ROW     5, COLUMN     1 IS LESS THAN RESIDUAL WATER CONTENT-- SETTING EXTINCTION WATER CONTENT EQUAL TO RESIDUAL WATER CONTENT

EXTINCTION WATER CONTENT FOR CELL AT ROW     5, COLUMN     2 IS LESS THAN RESIDUAL WATER CONTENT-- SETTING EXTINCTION WATER CONTENT EQUAL TO RESIDUAL WATER CONTENT

EXTINCTION WATER CONTENT FOR CELL AT ROW     5, COLUMN     3 IS LESS THAN RESIDUAL WATER CONTENT-- SETTING EXTINCTION WATER CONTENT EQUAL TO RESIDUAL WATER CONTENT

EXTINCTION WATER CONTENT FOR CELL AT ROW     5, COLUMN     4 IS LESS THAN RESIDUAL WATER CONTENT-- SETTING EXTINCTION WATER CONTENT EQUAL TO RESIDUAL WATER CONTENT

EXTINCTION WATER CONTENT FOR CELL AT ROW     5, COLUMN     5 IS LESS THAN RESIDUAL WATER CONTENT-- SETTING EXTINCTION WATER CONTENT EQUAL TO RESIDUAL WATER CONTENT

EXTINCTION WATER CONTENT FOR CELL AT ROW     5, COLUMN     6 IS LESS THAN RESIDUAL WATER CONTENT-- SETTING EXTINCTION WATER CONTENT EQUAL TO RESIDUAL WATER CONTENT

EXTINCTION WATER CONTENT FOR CELL AT ROW     5, COLUMN     7 IS LESS THAN RESIDUAL WATER CONTENT-- SETTING EXTINCTION WATER CONTENT EQUAL TO RESIDUAL WATER CONTENT

EXTINCTION WATER CONTENT FOR CELL AT ROW     5, COLUMN     8 IS LESS THAN RESIDUAL WATER CONTENT-- SETTING EXTINCTION WATER CONTENT EQUAL TO RESIDUAL WATER CONTENT

EXTINCTION WATER CONTENT FOR CELL AT ROW     5, COLUMN     9 IS LESS THAN RESIDUAL WATER CONTENT-- SETTING EXTINCTION WATER CONTENT EQUAL TO RESIDUAL WATER CONTENT

EXTINCTION WATER CONTENT FOR CELL AT ROW     5, COLUMN    10 IS LESS THAN RESIDUAL WATER CONTENT-- SETTING EXTINCTION WATER CONTENT EQUAL TO RESIDUAL WATER CONTENT

EXTINCTION WATER CONTENT FOR CELL AT ROW     6, COLUMN     1 IS LESS THAN RESIDUAL WATER CONTENT-- SETTING EXTINCTION WATER CONTENT EQUAL TO RESIDUAL WATER CONTENT

EXTINCTION WATER CONTENT FOR CELL AT ROW     6, COLUMN     2 IS LESS THAN RESIDUAL WATER CONTENT-- SETTING EXTINCTION WATER CONTENT EQUAL TO RESIDUAL WATER CONTENT

EXTINCTION WATER CONTENT FOR CELL AT ROW     6, COLUMN     3 IS LESS THAN RESIDUAL WATER CONTENT-- SETTING EXTINCTION WATER CONTENT EQUAL TO RESIDUAL WATER CONTENT

EXTINCTION WATER CONTENT FOR CELL AT ROW     6, COLUMN     4 IS LESS THAN RESIDUAL WATER CONTENT-- SETTING EXTINCTION WATER CONTENT EQUAL TO RESIDUAL WATER CONTENT

EXTINCTION WATER CONTENT FOR CELL AT ROW     6, COLUMN     5 IS LESS THAN RESIDUAL WATER CONTENT-- SETTING EXTINCTION WATER CONTENT EQUAL TO RESIDUAL WATER CONTENT

EXTINCTION WATER CONTENT FOR CELL AT ROW     6, COLUMN     6 IS LESS THAN RESIDUAL WATER CONTENT-- SETTING EXTINCTION WATER CONTENT EQUAL TO RESIDUAL WATER CONTENT

EXTINCTION WATER CONTENT FOR CELL AT ROW     6, COLUMN     7 IS LESS THAN RESIDUAL WATER CONTENT-- SETTING EXTINCTION WATER CONTENT EQUAL TO RESIDUAL WATER CONTENT

EXTINCTION WATER CONTENT FOR CELL AT ROW     6, COLUMN     8 IS LESS THAN RESIDUAL WATER CONTENT-- SETTING EXTINCTION WATER CONTENT EQUAL TO RESIDUAL WATER CONTENT

EXTINCTION WATER CONTENT FOR CELL AT ROW     6, COLUMN     9 IS LESS THAN RESIDUAL WATER CONTENT-- SETTING EXTINCTION WATER CONTENT EQUAL TO RESIDUAL WATER CONTENT

EXTINCTION WATER CONTENT FOR CELL AT ROW     6, COLUMN    10 IS LESS THAN RESIDUAL WATER CONTENT-- SETTING EXTINCTION WATER CONTENT EQUAL TO RESIDUAL WATER CONTENT

EXTINCTION WATER CONTENT FOR CELL AT ROW     7, COLUMN     1 IS LESS THAN RESIDUAL WATER CONTENT-- SETTING EXTINCTION WATER CONTENT EQUAL TO RESIDUAL WATER CONTENT

EXTINCTION WATER CONTENT FOR CELL AT ROW     7, COLUMN     2 IS LESS THAN RESIDUAL WATER CONTENT-- SETTING EXTINCTION WATER CONTENT EQUAL TO RESIDUAL WATER CONTENT

EXTINCTION WATER CONTENT FOR CELL AT ROW     7, COLUMN     3 IS LESS THAN RESIDUAL WATER CONTENT-- SETTING EXTINCTION WATER CONTENT EQUAL TO RESIDUAL WATER CONTENT

EXTINCTION WATER CONTENT FOR CELL AT ROW     7, COLUMN     4 IS LESS THAN RESIDUAL WATER CONTENT-- SETTING EXTINCTION WATER CONTENT EQUAL TO RESIDUAL WATER CONTENT

EXTINCTION WATER CONTENT FOR CELL AT ROW     7, COLUMN     5 IS LESS THAN RESIDUAL WATER CONTENT-- SETTING EXTINCTION WATER CONTENT EQUAL TO RESIDUAL WATER CONTENT

EXTINCTION WATER CONTENT FOR CELL AT ROW     7, COLUMN     6 IS LESS THAN RESIDUAL WATER CONTENT-- SETTING EXTINCTION WATER CONTENT EQUAL TO RESIDUAL WATER CONTENT

EXTINCTION WATER CONTENT FOR CELL AT ROW     7, COLUMN     7 IS LESS THAN RESIDUAL WATER CONTENT-- SETTING EXTINCTION WATER CONTENT EQUAL TO RESIDUAL WATER CONTENT

EXTINCTION WATER CONTENT FOR CELL AT ROW     7, COLUMN     8 IS LESS THAN RESIDUAL WATER CONTENT-- SETTING EXTINCTION WATER CONTENT EQUAL TO RESIDUAL WATER CONTENT

EXTINCTION WATER CONTENT FOR CELL AT ROW     7, COLUMN     9 IS LESS THAN RESIDUAL WATER CONTENT-- SETTING EXTINCTION WATER CONTENT EQUAL TO RESIDUAL WATER CONTENT

EXTINCTION WATER CONTENT FOR CELL AT ROW     8, COLUMN     2 IS LESS THAN RESIDUAL WATER CONTENT-- SETTING EXTINCTION WATER CONTENT EQUAL TO RESIDUAL WATER CONTENT

EXTINCTION WATER CONTENT FOR CELL AT ROW     8, COLUMN     3 IS LESS THAN RESIDUAL WATER CONTENT-- SETTING EXTINCTION WATER CONTENT EQUAL TO RESIDUAL WATER CONTENT

EXTINCTION WATER CONTENT FOR CELL AT ROW     8, COLUMN     4 IS LESS THAN RESIDUAL WATER CONTENT-- SETTING EXTINCTION WATER CONTENT EQUAL TO RESIDUAL WATER CONTENT

EXTINCTION WATER CONTENT FOR CELL AT ROW     8, COLUMN     5 IS LESS THAN RESIDUAL WATER CONTENT-- SETTING EXTINCTION WATER CONTENT EQUAL TO RESIDUAL WATER CONTENT

EXTINCTION WATER CONTENT FOR CELL AT ROW     8, COLUMN     6 IS LESS THAN RESIDUAL WATER CONTENT-- SETTING EXTINCTION WATER CONTENT EQUAL TO RESIDUAL WATER CONTENT

EXTINCTION WATER CONTENT FOR CELL AT ROW     8, COLUMN     7 IS LESS THAN RESIDUAL WATER CONTENT-- SETTING EXTINCTION WATER CONTENT EQUAL TO RESIDUAL WATER CONTENT

EXTINCTION WATER CONTENT FOR CELL AT ROW     8, COLUMN     8 IS LESS THAN RESIDUAL WATER CONTENT-- SETTING EXTINCTION WATER CONTENT EQUAL TO RESIDUAL WATER CONTENT

EXTINCTION WATER CONTENT FOR CELL AT ROW     8, COLUMN     9 IS LESS THAN RESIDUAL WATER CONTENT-- SETTING EXTINCTION WATER CONTENT EQUAL TO RESIDUAL WATER CONTENT

EXTINCTION WATER CONTENT FOR CELL AT ROW     9, COLUMN     2 IS LESS THAN RESIDUAL WATER CONTENT-- SETTING EXTINCTION WATER CONTENT EQUAL TO RESIDUAL WATER CONTENT

EXTINCTION WATER CONTENT FOR CELL AT ROW     9, COLUMN     3 IS LESS THAN RESIDUAL WATER CONTENT-- SETTING EXTINCTION WATER CONTENT EQUAL TO RESIDUAL WATER CONTENT

EXTINCTION WATER CONTENT FOR CELL AT ROW     9, COLUMN     4 IS LESS THAN RESIDUAL WATER CONTENT-- SETTING EXTINCTION WATER CONTENT EQUAL TO RESIDUAL WATER CONTENT

EXTINCTION WATER CONTENT FOR CELL AT ROW     9, COLUMN     5 IS LESS THAN RESIDUAL WATER CONTENT-- SETTING EXTINCTION WATER CONTENT EQUAL TO RESIDUAL WATER CONTENT

EXTINCTION WATER CONTENT FOR CELL AT ROW     9, COLUMN     6 IS LESS THAN RESIDUAL WATER CONTENT-- SETTING EXTINCTION WATER CONTENT EQUAL TO RESIDUAL WATER CONTENT

EXTINCTION WATER CONTENT FOR CELL AT ROW     9, COLUMN     7 IS LESS THAN RESIDUAL WATER CONTENT-- SETTING EXTINCTION WATER CONTENT EQUAL TO RESIDUAL WATER CONTENT

EXTINCTION WATER CONTENT FOR CELL AT ROW     9, COLUMN     8 IS LESS THAN RESIDUAL WATER CONTENT-- SETTING EXTINCTION WATER CONTENT EQUAL TO RESIDUAL WATER CONTENT

EXTINCTION WATER CONTENT FOR CELL AT ROW     9, COLUMN     9 IS LESS THAN RESIDUAL WATER CONTENT-- SETTING EXTINCTION WATER CONTENT EQUAL TO RESIDUAL WATER CONTENT

EXTINCTION WATER CONTENT FOR CELL AT ROW    10, COLUMN     2 IS LESS THAN RESIDUAL WATER CONTENT-- SETTING EXTINCTION WATER CONTENT EQUAL TO RESIDUAL WATER CONTENT

EXTINCTION WATER CONTENT FOR CELL AT ROW    10, COLUMN     3 IS LESS THAN RESIDUAL WATER CONTENT-- SETTING EXTINCTION WATER CONTENT EQUAL TO RESIDUAL WATER CONTENT

EXTINCTION WATER CONTENT FOR CELL AT ROW    10, COLUMN     4 IS LESS THAN RESIDUAL WATER CONTENT-- SETTING EXTINCTION WATER CONTENT EQUAL TO RESIDUAL WATER CONTENT

EXTINCTION WATER CONTENT FOR CELL AT ROW    10, COLUMN     5 IS LESS THAN RESIDUAL WATER CONTENT-- SETTING EXTINCTION WATER CONTENT EQUAL TO RESIDUAL WATER CONTENT

EXTINCTION WATER CONTENT FOR CELL AT ROW    10, COLUMN     6 IS LESS THAN RESIDUAL WATER CONTENT-- SETTING EXTINCTION WATER CONTENT EQUAL TO RESIDUAL WATER CONTENT

EXTINCTION WATER CONTENT FOR CELL AT ROW    10, COLUMN     7 IS LESS THAN RESIDUAL WATER CONTENT-- SETTING EXTINCTION WATER CONTENT EQUAL TO RESIDUAL WATER CONTENT

EXTINCTION WATER CONTENT FOR CELL AT ROW    10, COLUMN     8 IS LESS THAN RESIDUAL WATER CONTENT-- SETTING EXTINCTION WATER CONTENT EQUAL TO RESIDUAL WATER CONTENT

EXTINCTION WATER CONTENT FOR CELL AT ROW    10, COLUMN     9 IS LESS THAN RESIDUAL WATER CONTENT-- SETTING EXTINCTION WATER CONTENT EQUAL TO RESIDUAL WATER CONTENT

EXTINCTION WATER CONTENT FOR CELL AT ROW    10, COLUMN    10 IS LESS THAN RESIDUAL WATER CONTENT-- SETTING EXTINCTION WATER CONTENT EQUAL TO RESIDUAL WATER CONTENT

EXTINCTION WATER CONTENT FOR CELL AT ROW    11, COLUMN     2 IS LESS THAN RESIDUAL WATER CONTENT-- SETTING EXTINCTION WATER CONTENT EQUAL TO RESIDUAL WATER CONTENT

EXTINCTION WATER CONTENT FOR CELL AT ROW    11, COLUMN     3 IS LESS THAN RESIDUAL WATER CONTENT-- SETTING EXTINCTION WATER CONTENT EQUAL TO RESIDUAL WATER CONTENT

EXTINCTION WATER CONTENT FOR CELL AT ROW    11, COLUMN     4 IS LESS THAN RESIDUAL WATER CONTENT-- SETTING EXTINCTION WATER CONTENT EQUAL TO RESIDUAL WATER CONTENT

EXTINCTION WATER CONTENT FOR CELL AT ROW    11, COLUMN     5 IS LESS THAN RESIDUAL WATER CONTENT-- SETTING EXTINCTION WATER CONTENT EQUAL TO RESIDUAL WATER CONTENT

EXTINCTION WATER CONTENT FOR CELL AT ROW    11, COLUMN     6 IS LESS THAN RESIDUAL WATER CONTENT-- SETTING EXTINCTION WATER CONTENT EQUAL TO RESIDUAL WATER CONTENT

EXTINCTION WATER CONTENT FOR CELL AT ROW    11, COLUMN     7 IS LESS THAN RESIDUAL WATER CONTENT-- SETTING EXTINCTION WATER CONTENT EQUAL TO RESIDUAL WATER CONTENT

EXTINCTION WATER CONTENT FOR CELL AT ROW    11, COLUMN     8 IS LESS THAN RESIDUAL WATER CONTENT-- SETTING EXTINCTION WATER CONTENT EQUAL TO RESIDUAL WATER CONTENT

EXTINCTION WATER CONTENT FOR CELL AT ROW    11, COLUMN     9 IS LESS THAN RESIDUAL WATER CONTENT-- SETTING EXTINCTION WATER CONTENT EQUAL TO RESIDUAL WATER CONTENT

EXTINCTION WATER CONTENT FOR CELL AT ROW    12, COLUMN     1 IS LESS THAN RESIDUAL WATER CONTENT-- SETTING EXTINCTION WATER CONTENT EQUAL TO RESIDUAL WATER CONTENT

EXTINCTION WATER CONTENT FOR CELL AT ROW    12, COLUMN     2 IS LESS THAN RESIDUAL WATER CONTENT-- SETTING EXTINCTION WATER CONTENT EQUAL TO RESIDUAL WATER CONTENT

EXTINCTION WATER CONTENT FOR CELL AT ROW    12, COLUMN     3 IS LESS THAN RESIDUAL WATER CONTENT-- SETTING EXTINCTION WATER CONTENT EQUAL TO RESIDUAL WATER CONTENT

EXTINCTION WATER CONTENT FOR CELL AT ROW    12, COLUMN     4 IS LESS THAN RESIDUAL WATER CONTENT-- SETTING EXTINCTION WATER CONTENT EQUAL TO RESIDUAL WATER CONTENT

EXTINCTION WATER CONTENT FOR CELL AT ROW    12, COLUMN     5 IS LESS THAN RESIDUAL WATER CONTENT-- SETTING EXTINCTION WATER CONTENT EQUAL TO RESIDUAL WATER CONTENT

EXTINCTION WATER CONTENT FOR CELL AT ROW    12, COLUMN     6 IS LESS THAN RESIDUAL WATER CONTENT-- SETTING EXTINCTION WATER CONTENT EQUAL TO RESIDUAL WATER CONTENT

EXTINCTION WATER CONTENT FOR CELL AT ROW    12, COLUMN     7 IS LESS THAN RESIDUAL WATER CONTENT-- SETTING EXTINCTION WATER CONTENT EQUAL TO RESIDUAL WATER CONTENT

EXTINCTION WATER CONTENT FOR CELL AT ROW    12, COLUMN     8 IS LESS THAN RESIDUAL WATER CONTENT-- SETTING EXTINCTION WATER CONTENT EQUAL TO RESIDUAL WATER CONTENT

EXTINCTION WATER CONTENT FOR CELL AT ROW    12, COLUMN     9 IS LESS THAN RESIDUAL WATER CONTENT-- SETTING EXTINCTION WATER CONTENT EQUAL TO RESIDUAL WATER CONTENT

EXTINCTION WATER CONTENT FOR CELL AT ROW    13, COLUMN     1 IS LESS THAN RESIDUAL WATER CONTENT-- SETTING EXTINCTION WATER CONTENT EQUAL TO RESIDUAL WATER CONTENT

EXTINCTION WATER CONTENT FOR CELL AT ROW    13, COLUMN     2 IS LESS THAN RESIDUAL WATER CONTENT-- SETTING EXTINCTION WATER CONTENT EQUAL TO RESIDUAL WATER CONTENT

EXTINCTION WATER CONTENT FOR CELL AT ROW    13, COLUMN     3 IS LESS THAN RESIDUAL WATER CONTENT-- SETTING EXTINCTION WATER CONTENT EQUAL TO RESIDUAL WATER CONTENT

EXTINCTION WATER CONTENT FOR CELL AT ROW    13, COLUMN     4 IS LESS THAN RESIDUAL WATER CONTENT-- SETTING EXTINCTION WATER CONTENT EQUAL TO RESIDUAL WATER CONTENT

EXTINCTION WATER CONTENT FOR CELL AT ROW    13, COLUMN     5 IS LESS THAN RESIDUAL WATER CONTENT-- SETTING EXTINCTION WATER CONTENT EQUAL TO RESIDUAL WATER CONTENT

EXTINCTION WATER CONTENT FOR CELL AT ROW    13, COLUMN     6 IS LESS THAN RESIDUAL WATER CONTENT-- SETTING EXTINCTION WATER CONTENT EQUAL TO RESIDUAL WATER CONTENT

EXTINCTION WATER CONTENT FOR CELL AT ROW    13, COLUMN     7 IS LESS THAN RESIDUAL WATER CONTENT-- SETTING EXTINCTION WATER CONTENT EQUAL TO RESIDUAL WATER CONTENT

EXTINCTION WATER CONTENT FOR CELL AT ROW    13, COLUMN     8 IS LESS THAN RESIDUAL WATER CONTENT-- SETTING EXTINCTION WATER CONTENT EQUAL TO RESIDUAL WATER CONTENT

EXTINCTION WATER CONTENT FOR CELL AT ROW    13, COLUMN     9 IS LESS THAN RESIDUAL WATER CONTENT-- SETTING EXTINCTION WATER CONTENT EQUAL TO RESIDUAL WATER CONTENT

EXTINCTION WATER CONTENT FOR CELL AT ROW    14, COLUMN     2 IS LESS THAN RESIDUAL WATER CONTENT-- SETTING EXTINCTION WATER CONTENT EQUAL TO RESIDUAL WATER CONTENT

EXTINCTION WATER CONTENT FOR CELL AT ROW    14, COLUMN     3 IS LESS THAN RESIDUAL WATER CONTENT-- SETTING EXTINCTION WATER CONTENT EQUAL TO RESIDUAL WATER CONTENT

EXTINCTION WATER CONTENT FOR CELL AT ROW    14, COLUMN     4 IS LESS THAN RESIDUAL WATER CONTENT-- SETTING EXTINCTION WATER CONTENT EQUAL TO RESIDUAL WATER CONTENT

EXTINCTION WATER CONTENT FOR CELL AT ROW    14, COLUMN     5 IS LESS THAN RESIDUAL WATER CONTENT-- SETTING EXTINCTION WATER CONTENT EQUAL TO RESIDUAL WATER CONTENT

EXTINCTION WATER CONTENT FOR CELL AT ROW    14, COLUMN     6 IS LESS THAN RESIDUAL WATER CONTENT-- SETTING EXTINCTION WATER CONTENT EQUAL TO RESIDUAL WATER CONTENT

EXTINCTION WATER CONTENT FOR CELL AT ROW    14, COLUMN     7 IS LESS THAN RESIDUAL WATER CONTENT-- SETTING EXTINCTION WATER CONTENT EQUAL TO RESIDUAL WATER CONTENT

EXTINCTION WATER CONTENT FOR CELL AT ROW    14, COLUMN     8 IS LESS THAN RESIDUAL WATER CONTENT-- SETTING EXTINCTION WATER CONTENT EQUAL TO RESIDUAL WATER CONTENT

EXTINCTION WATER CONTENT FOR CELL AT ROW    14, COLUMN     9 IS LESS THAN RESIDUAL WATER CONTENT-- SETTING EXTINCTION WATER CONTENT EQUAL TO RESIDUAL WATER CONTENT

EXTINCTION WATER CONTENT FOR CELL AT ROW    15, COLUMN     3 IS LESS THAN RESIDUAL WATER CONTENT-- SETTING EXTINCTION WATER CONTENT EQUAL TO RESIDUAL WATER CONTENT

EXTINCTION WATER CONTENT FOR CELL AT ROW    15, COLUMN     4 IS LESS THAN RESIDUAL WATER CONTENT-- SETTING EXTINCTION WATER CONTENT EQUAL TO RESIDUAL WATER CONTENT

EXTINCTION WATER CONTENT FOR CELL AT ROW    15, COLUMN     5 IS LESS THAN RESIDUAL WATER CONTENT-- SETTING EXTINCTION WATER CONTENT EQUAL TO RESIDUAL WATER CONTENT

EXTINCTION WATER CONTENT FOR CELL AT ROW    15, COLUMN     6 IS LESS THAN RESIDUAL WATER CONTENT-- SETTING EXTINCTION WATER CONTENT EQUAL TO RESIDUAL WATER CONTENT

       AIR ENTRY PRESSURE =  -1.10000    

            ROOT PRESSURE =  -75.0000    

            ROOT ACTIVITY =   1.00000    
 # AG segment list

 PROCESSING SEGMENT LIST

 FINISHED READING SEGMENT LIST
 # AG well list

 PROCESSING WELL LIST

 LAYER   ROW   COL   MAX STRESS RATE         
 --------------------------------------------
      1      1      6      4      -100.0    
      2      1      6      5      -100.0    
      3      1      7      4      -100.0    
      4      1      7      5      -100.0    
      5      1      8      4      -100.0    
      6      1      8      5      -100.0    

 FINISHED READING WELL LIST

      6 WELLS

 PROCESSING AG STRESS PERIOD DATA
 # AG stress period

 READING AG STRESS PERIOD DATA

 READING IRRIGATION SEGMENT

 READING IRRIGATION WELL

 READING SUPPLEMENTAL WELL

 END PROCESSING AG STRESS PERIOD DATA OPTIONS
 
 SOLVING FOR HEAD 
                                                   Max.-Head-Change                         Max.-Flux-Residual
  Residual-Control   Outer-Iter.   Inner-Iter.     Column Row Layer    Maximum-Head-Change  Column Row Layer    Maximum-Flux-Residual          L2-NORM 
          0                 1           6             2    2     1      -0.3091902064E+02       3    3    1        -0.3387725593E+01      0.9438782865E+01
          0                 2           6             1    1     1      -0.3160283292E+02       1   13    1        -0.6317714402E+02      0.6341706057E+02
          0                 3           5             1    1     1      -0.1218344574E+01       1   13    1        -0.2090503639E+01      0.2852988538E+01
          0                 4           5             5   13     1      -0.3531913407E+00       5   13    1        -0.5902046470E+00      0.6060818052E+00
          0                 5           4             5   14     1       0.5787723920E-01       5   13    1         0.2547336429E-01      0.4765602283E-01
          0                 6           2             5   14     1      -0.2238284060E-02       5   12    1        -0.2373325674E-02      0.3894923016E-02
          0                 7           1             5   12     1       0.4405428811E-04       5   12    1         0.1191611464E-03      0.1657509654E-03

    ------------------------------------------------
       NWT REQUIRED            7 OUTER ITERATIONS 
       AND A TOTAL OF         29 INNER ITERATIONS.
    ------------------------------------------------

 OUTPUT CONTROL FOR STRESS PERIOD    1   TIME STEP    1
    PRINT BUDGET
    PRINT HEAD FOR ALL LAYERS
    SAVE BUDGET
    SAVE HEAD FOR ALL LAYERS
 UBDSV2 SAVING "   CONSTANT HEAD" ON UNIT 102 AT TIME STEP  1, STRESS PERIOD   1
 UBDSV1 SAVING "FLOW RIGHT FACE " ON UNIT 102 AT TIME STEP  1, STRESS PERIOD   1
 UBDSV1 SAVING "FLOW FRONT FACE " ON UNIT 102 AT TIME STEP  1, STRESS PERIOD   1

  HEAD DEP BOUNDS   PERIOD    1   STEP     1
 BOUNDARY      1   LAYER   1   ROW    13   COL     1   RATE   -0.286536    
 BOUNDARY      2   LAYER   1   ROW    14   COL     9   RATE    0.287755    



 STREAM LISTING     PERIOD      1   STEP        1

 LAYER ROW COL. STREAM  RCH.  FLOW INTO     FLOW TO   FLOW OUT OF   OVRLND.     DIRECT     STREAM       STREAM     STREAM     STREAM   STREAMBED  STREAMBED
                SEG.NO.  NO.  STRM. RCH.    AQUIFER    STRM. RCH.    RUNOFF     PRECIP       ET          HEAD       DEPTH      WIDTH   CONDCTNC.   GRADIENT

   1    1    1     1     1    1.8750E+00  6.5285E-02   1.8097E+00  0.000E+00  0.000E+00  0.000E+00  1.09358E+03  5.296E-01  4.110E+00  1.850E-02  1.177E+00
   1    2    2     1     2    1.8097E+00  1.0002E-01   1.7097E+00  0.000E+00  0.000E+00  0.000E+00  1.08858E+03  5.186E-01  4.061E+00  2.843E-02  1.173E+00
   1    3    3     1     3    1.7097E+00  8.4225E-02   1.6255E+00  0.000E+00  0.000E+00  0.000E+00  1.08292E+03  5.059E-01  4.004E+00  2.402E-02  1.169E+00
   1    3    4     1     4    1.6255E+00  7.6652E-02   1.5488E+00  0.000E+00  0.000E+00  0.000E+00  1.07790E+03  4.946E-01  3.952E+00  2.193E-02  1.165E+00
   1    4    5     2     1    0.0000E+00  0.0000E+00   0.0000E+00  0.000E+00  0.000E+00  0.000E+00  1.07193E+03  0.000E+00  1.200E+01  7.800E-02  1.000E+00
   1    5    6     2     2    0.0000E+00  0.0000E+00   0.0000E+00  0.000E+00  0.000E+00  0.000E+00  1.06651E+03  0.000E+00  1.200E+01  6.000E-02  1.000E+00
   1    6    6     2     3    0.0000E+00  0.0000E+00   0.0000E+00  0.000E+00  0.000E+00  0.000E+00  1.06179E+03  0.000E+00  1.200E+01  6.000E-02  1.000E+00
   1    7    6     2     4    0.0000E+00  0.0000E+00   0.0000E+00  0.000E+00  0.000E+00  0.000E+00  1.05708E+03  0.000E+00  1.200E+01  6.000E-02  1.000E+00
   1    8    6     2     5    0.0000E+00  0.0000E+00   0.0000E+00  0.000E+00  0.000E+00  0.000E+00  1.05236E+03  0.000E+00  1.200E+01  6.000E-02  1.000E+00
   1    3    5     3     1    1.5488E+00  2.8252E-01   1.2663E+00  0.000E+00  0.000E+00  0.000E+00  1.07555E+03  1.909E+00  9.636E+00  7.227E-02  1.955E+00
   1    3    6     3     2    1.2663E+00  2.4905E-01   1.0172E+00  0.000E+00  0.000E+00  0.000E+00  1.07264E+03  1.727E+00  8.909E+00  6.682E-02  1.864E+00
   1    3    7     3     3    1.0172E+00  1.9718E-01   8.2007E-01  0.000E+00  0.000E+00  0.000E+00  1.06987E+03  1.555E+00  8.218E+00  5.547E-02  1.777E+00
   1    4    8     3     4    8.2007E-01  2.2567E-01   5.9440E-01  0.000E+00  0.000E+00  0.000E+00  1.06682E+03  1.364E+00  7.455E+00  6.709E-02  1.682E+00
   1    5    8     3     5    5.9440E-01  1.5790E-01   4.3650E-01  0.000E+00  0.000E+00  0.000E+00  1.06362E+03  1.164E+00  6.655E+00  4.991E-02  1.582E+00
   1    6    8     3     6    4.3650E-01  5.5980E-02   3.8052E-01  0.000E+00  0.000E+00  0.000E+00  1.06158E+03  1.036E+00  6.145E+00  1.844E-02  1.518E+00
   1    5   10     4     1    1.0000E+01  9.0919E-02   9.9091E+00  0.000E+00  0.000E+00  0.000E+00  1.07836E+03  6.368E-01  1.000E+01  2.500E-02  1.212E+00
   1    5    9     4     2    9.9091E+00  1.8158E-01   9.7275E+00  0.000E+00  0.000E+00  0.000E+00  1.07154E+03  6.315E-01  1.000E+01  5.000E-02  1.211E+00
   1    6    8     4     3    9.7275E+00  1.2689E-01   9.6006E+00  0.000E+00  0.000E+00  0.000E+00  1.06381E+03  6.256E-01  1.000E+01  3.500E-02  1.209E+00
   1    6    8     5     1    9.9811E+00  2.2027E-01   9.7609E+00  0.000E+00  0.000E+00  0.000E+00  1.05867E+03  6.686E-01  1.501E+01  6.004E-02  1.223E+00
   1    7    7     5     2    9.7609E+00  2.7078E-01   9.4901E+00  0.000E+00  0.000E+00  0.000E+00  1.05416E+03  6.627E-01  1.479E+01  7.393E-02  1.221E+00
   1    8    7     5     3    9.4901E+00  1.8654E-01   9.3035E+00  0.000E+00  0.000E+00  0.000E+00  1.04991E+03  6.571E-01  1.457E+01  5.101E-02  1.219E+00
   1    8    6     5     4    9.3035E+00  1.3175E-01   9.1718E+00  0.000E+00  0.000E+00  0.000E+00  1.04690E+03  6.532E-01  1.443E+01  3.606E-02  1.218E+00
   1    9    6     6     1    9.1718E+00  2.1985E-01   8.9519E+00  0.000E+00  0.000E+00  0.000E+00  1.04339E+03  6.642E-01  1.200E+01  6.000E-02  1.221E+00
   1   10    7     6     2    8.9519E+00  2.1927E-01   8.7327E+00  0.000E+00  0.000E+00  0.000E+00  1.03884E+03  6.545E-01  1.200E+01  6.000E-02  1.218E+00
   1   11    7     6     3    8.7327E+00  2.1868E-01   8.5140E+00  0.000E+00  0.000E+00  0.000E+00  1.03428E+03  6.447E-01  1.200E+01  6.000E-02  1.215E+00
   1   12    7     6     4    8.5140E+00  2.1809E-01   8.2959E+00  0.000E+00  0.000E+00  0.000E+00  1.02973E+03  6.349E-01  1.200E+01  6.000E-02  1.212E+00
   1   13    7     6     5    8.2959E+00 -6.5708E-02   8.3616E+00  0.000E+00  0.000E+00  0.000E+00  1.02654E+03  6.314E-01  1.200E+01  2.400E-01 -9.126E-02
   1   14    9     7     1    1.5000E+02  1.3651E+00   1.4863E+02  0.000E+00  0.000E+00  0.000E+00  1.03987E+03  2.288E+00  5.529E+01  5.593E-01  8.136E-01
   1   13    8     7     2    1.4863E+02  1.9205E+00   1.4671E+02  0.000E+00  0.000E+00  0.000E+00  1.03478E+03  2.279E+00  5.526E+01  6.148E-01  1.041E+00
   1   13    7     7     3    1.4671E+02  1.6052E+00   1.4511E+02  0.000E+00  0.000E+00  0.000E+00  1.02969E+03  2.269E+00  5.521E+01  5.584E-01  9.582E-01
   1   13    6     8     1    1.5347E+02  9.5026E-01   1.5252E+02  0.000E+00  0.000E+00  0.000E+00  1.02471E+03  2.838E+00  4.115E+01  4.193E-01  7.554E-01
   1   13    5     8     2    1.5252E+02  2.1144E-01   1.5231E+02  0.000E+00  0.000E+00  0.000E+00  1.01846E+03  2.834E+00  4.109E+01  4.187E-01  1.683E-01
   1   13    4     8     3    1.5231E+02 -2.3074E+00   1.5462E+02  0.000E+00  0.000E+00  0.000E+00  1.01222E+03  2.841E+00  4.120E+01  4.198E+00 -1.832E-01
   1   13    3     8     4    1.5462E+02 -3.5750E+00   1.5819E+02  0.000E+00  0.000E+00  0.000E+00  1.00599E+03  2.861E+00  4.149E+01  4.228E+00 -2.819E-01
   1   13    2     8     5    1.5819E+02 -2.5597E+00   1.6075E+02  0.000E+00  0.000E+00  0.000E+00  9.99757E+02  2.882E+00  4.179E+01  4.259E+00 -2.003E-01
   1   13    1     8     6    1.6075E+02 -1.9726E+00   1.6272E+02  0.000E+00  0.000E+00  0.000E+00  9.94773E+02  2.898E+00  4.201E+01  2.569E+00 -2.560E-01
   1    8    6     9     1    0.0000E+00  0.0000E+00   0.0000E+00  0.000E+00  0.000E+00  0.000E+00  1.07875E+03  0.000E+00  4.000E+00  0.000E+00  1.000E+00
   1    8    5     9     2    0.0000E+00  0.0000E+00   0.0000E+00  0.000E+00  0.000E+00  0.000E+00  1.07825E+03  0.000E+00  4.000E+00  0.000E+00  1.000E+00



 UBDSV3 SAVING "           GW ET" ON UNIT  61 AT TIME STEP  1, STRESS PERIOD   1
 UBDSV3 SAVING "    UZF RECHARGE" ON UNIT  61 AT TIME STEP  1, STRESS PERIOD   1
 UBDSV3 SAVING " SURFACE LEAKAGE" ON UNIT  61 AT TIME STEP  1, STRESS PERIOD   1
 UBDSV3 SAVING "       HORT+DUNN" ON UNIT  61 AT TIME STEP  1, STRESS PERIOD   1
 UBDSV3 SAVING "  STORAGE CHANGE" ON UNIT  61 AT TIME STEP  1, STRESS PERIOD   1


UNSATURATED ZONE PACKAGE VOLUMETRIC BUDGET FOR  TIME STEP     1 STRESS PERIOD    1
  ------------------------------------------------------------------------------



     CUMULATIVE VOLUMES      L**3       RATES FOR THIS TIME STEP      L**3/T
     ------------------                 ------------------------

           IN:                                      IN:
           ---                                      ---
        INFILTRATION =       73224.0000          INFILTRATION =           0.8475

          OUT:                                     OUT:
          ----                                     ----
              UZF ET =       0.0000E+00                UZF ET =       0.0000E+00
        UZF RECHARGE =       73224.0000          UZF RECHARGE =           0.8475

            IN - OUT =       0.0000E+00              IN - OUT =       0.0000E+00

          STORAGE:                                 STORAGE:
          --------                                 --------
      STORAGE CHANGE =       0.0000E+00        STORAGE CHANGE =       0.0000E+00

 PERCENT DISCREPANCY IS DIFFERENCE BETWEEN IN-OUT MINUS CHANGE IN STORAGE
 DIVIDED BY THE AVERAGE OF IN AND OUT TIMES 100

 PERCENT DISCREPANCY =           0.00     PERCENT DISCREPANCY =           0.00






 

            AG WELLS      PERIOD    1   STEP   1
 AG WELL      1   LAYER   1   ROW     6   COL     4   RATE     0.00000    
 AG WELL      2   LAYER   1   ROW     6   COL     5   RATE     0.00000    
 AG WELL      3   LAYER   1   ROW     7   COL     4   RATE     0.00000    
 AG WELL      4   LAYER   1   ROW     7   COL     5   RATE     0.00000    
 AG WELL      5   LAYER   1   ROW     8   COL     4   RATE     0.00000    
 AG WELL      6   LAYER   1   ROW     8   COL     5   RATE     0.00000    
 
 

   DIVERSION SEGMENTS     PERIOD    1   STEP   1
 
 

        SW IRRIGATION     PERIOD    1   STEP   1
 
 

        GW IRRIGATION     PERIOD    1   STEP   1
 
1
  VOLUMETRIC BUDGET FOR AGRICULTURAL FIELDS AT  END OF TIME STEP    1, STRESS PERIOD   1
  ------------------------------------------------------------------------------

     CUMULATIVE VOLUMES      L**3       RATES FOR THIS TIME STEP      L**3/T
     ------------------                 ------------------------

           IN:                                      IN:
           ---                                      ---
               AG WELLS  =           0.0000                 AG WELLS  =           0.0000
      DIVERSION SEGMENTS =           0.0000        DIVERSION SEGMENTS =           0.0000
           GW IRRIGATION =           0.0000             GW IRRIGATION =           0.0000
           SW IRRIGATION =           0.0000             SW IRRIGATION =           0.0000
        SYSTEM LOSSES GW =           0.0000          SYSTEM LOSSES GW =           0.0000
        SYSTEM LOSSES SW =           0.0000          SYSTEM LOSSES SW =           0.0000

                TOTAL IN =           0.0000                  TOTAL IN =           0.0000

          OUT:                                     OUT:
          ----                                     ----
               AG WELLS  =           0.0000                 AG WELLS  =           0.0000
      DIVERSION SEGMENTS =           0.0000        DIVERSION SEGMENTS =           0.0000
           GW IRRIGATION =           0.0000             GW IRRIGATION =           0.0000
           SW IRRIGATION =           0.0000             SW IRRIGATION =           0.0000
        SYSTEM LOSSES GW =           0.0000          SYSTEM LOSSES GW =           0.0000
        SYSTEM LOSSES SW =           0.0000          SYSTEM LOSSES SW =           0.0000

               TOTAL OUT =           0.0000                 TOTAL OUT =           0.0000

                IN - OUT =           0.0000                  IN - OUT =           0.0000

     PERCENT DISCREPANCY =           0.00         PERCENT DISCREPANCY =           0.00



1
              HEAD IN LAYER   1 AT END OF TIME STEP   1 IN STRESS PERIOD    1
  ---------------------------------------------------------------------------

           1       2       3       4       5       6       7       8       9      10
 ...................................................................................
   1  1029.26 1028.37 6999.00 6999.00 6999.00 6999.00 6999.00 6999.00 6999.00 6999.00
   2  1028.45 1027.36 1026.88 6999.00 6999.00 1028.30 1028.48 1028.46 6999.00 6999.00
   3  6999.00 1026.66 1026.39 1026.21 1026.77 1027.48 1028.04 1028.04 6999.00 6999.00
   4  1026.25 1026.11 1025.89 1025.72 1025.72 1025.86 1026.44 1027.58 1027.34 6999.00
   5  1025.90 1025.50 1025.30 1025.20 1025.26 1025.43 1025.71 1026.26 1026.91 1027.46
   6  1025.46 1024.92 1024.71 1024.66 1024.75 1024.99 1025.37 1025.92 1026.38 1027.29
   7  1025.06 1024.16 1023.99 1024.01 1024.15 1024.46 1024.94 1025.38 1025.92 6999.00
   8  6999.00 1023.02 1023.05 1023.19 1023.40 1023.81 1024.28 1024.92 1025.60 6999.00
   9  6999.00 1021.31 1021.62 1022.06 1022.44 1023.05 1023.57 1024.31 1025.54 6999.00
  10  6999.00 1018.82 1019.57 1020.57 1021.33 1022.32 1023.23 1024.33 1025.99 1026.64
  11  6999.00 1014.68 1016.10 1018.53 1020.11 1021.81 1023.34 1025.18 1027.44 6999.00
  12  1001.77 1007.67 1011.76 1015.60 1018.78 1021.71 1024.22 1027.74 1030.81 6999.00
  13   995.54 1000.36 1006.83 1012.77 1017.95 1022.45 1026.81 1031.65 1034.50 6999.00
  14  6999.00 1005.73 1008.80 1013.40 1018.06 1022.43 1027.39 1032.95 1037.43 6999.00
  15  6999.00 6999.00 1012.40 1015.08 1018.50 1021.48 6999.00 6999.00 6999.00 6999.00

 HEAD WILL BE SAVED ON UNIT   62 AT END OF TIME STEP    1, STRESS PERIOD    1
1
  VOLUMETRIC BUDGET FOR ENTIRE MODEL AT END OF TIME STEP    1, STRESS PERIOD   1
  ------------------------------------------------------------------------------

     CUMULATIVE VOLUMES      L**3       RATES FOR THIS TIME STEP      L**3/T
     ------------------                 ------------------------

           IN:                                      IN:
           ---                                      ---
             STORAGE     =           0.0000               STORAGE     =           0.0000
       CONSTANT HEAD     =           0.0000         CONSTANT HEAD     =           0.0000
     HEAD DEP BOUNDS     =       24862.0605       HEAD DEP BOUNDS     =           0.2878
      STREAM LEAKAGE     =      832172.8125        STREAM LEAKAGE     =           9.6316
        UZF RECHARGE     =       73223.9531          UZF RECHARGE     =           0.8475
               GW ET     =           0.0000                 GW ET     =           0.0000
     SURFACE LEAKAGE     =           0.0000       SURFACE LEAKAGE     =           0.0000
           AG WELLS      =           0.0000             AG WELLS      =           0.0000

                TOTAL IN =      930258.8125                  TOTAL IN =          10.7669

          OUT:                                     OUT:
          ----                                     ----
             STORAGE     =           0.0000               STORAGE     =           0.0000
       CONSTANT HEAD     =           0.0000         CONSTANT HEAD     =           0.0000
     HEAD DEP BOUNDS     =       24756.7500       HEAD DEP BOUNDS     =           0.2865
      STREAM LEAKAGE     =      905501.8750        STREAM LEAKAGE     =          10.4803
        UZF RECHARGE     =           0.0000          UZF RECHARGE     =           0.0000
               GW ET     =           0.0000                 GW ET     =           0.0000
     SURFACE LEAKAGE     =           0.0000       SURFACE LEAKAGE     =           0.0000
           AG WELLS      =           0.0000             AG WELLS      =           0.0000

               TOTAL OUT =      930258.6250                 TOTAL OUT =          10.7669

                IN - OUT =           0.1875                  IN - OUT =       2.8610E-06

     PERCENT DISCREPANCY =           0.00         PERCENT DISCREPANCY =           0.00






         TIME SUMMARY AT END OF TIME STEP    1 IN STRESS PERIOD    1
                    SECONDS     MINUTES      HOURS       DAYS        YEARS
                    -----------------------------------------------------------
   TIME STEP LENGTH  86400.      1440.0      24.000      1.0000     2.73785E-03
 STRESS PERIOD TIME  86400.      1440.0      24.000      1.0000     2.73785E-03
         TOTAL TIME  86400.      1440.0      24.000      1.0000     2.73785E-03
1
1
                            STRESS PERIOD NO.    2, LENGTH =   2630000.    
                            -----------------------------------------------

                              NUMBER OF TIME STEPS =    30

                               MULTIPLIER FOR DELT =     1.000

                            INITIAL TIME STEP SIZE =   87666.66    

 REUSING NON-PARAMETER GHB CELLS FROM LAST STRESS PERIOD

      2 GHB CELLS

 REUSING STREAM SEGMENT DATA FROM LAST STRESS PERIOD



            AREAL INFILTRATION RATE
 READING ON UNIT   19 WITH FORMAT: (FREE)              

            1           2           3           4           5           6           7           8           9          10
 ........................................................................................................................
   1   1.0000E-10  2.0000E-10   0.000       0.000       0.000       0.000       0.000       0.000       0.000       0.000    
   2   2.0000E-10  1.0000E-10  2.0000E-10   0.000       0.000      8.0000E-10  8.0000E-10  5.0000E-10   0.000       0.000    
   3    0.000      5.0000E-10  1.0000E-10  1.0000E-10  8.0000E-10  8.0000E-10  5.0000E-10  5.0000E-10   0.000       0.000    
   4   8.0000E-10  5.0000E-10  1.0000E-10  1.0000E-10  1.0000E-10  1.0000E-10  1.0000E-10  1.0000E-10  2.0000E-10   0.000    
   5   8.0000E-10  5.0000E-10  1.0000E-10  1.0000E-10  1.0000E-10  1.0000E-10  1.0000E-10  1.0000E-10  1.0000E-10  1.0000E-10
   6   8.0000E-10  5.0000E-10  5.0000E-10  2.0000E-10  2.0000E-10  1.0000E-10  1.0000E-10  1.0000E-10  1.0000E-10  5.0000E-10
   7   8.0000E-10  5.0000E-10  5.0000E-10  2.0000E-10  2.0000E-10  1.0000E-10  1.0000E-10  2.0000E-10  2.0000E-10   0.000    
   8    0.000      5.0000E-10  5.0000E-10  2.0000E-10  2.0000E-10  1.0000E-10  1.0000E-10  2.0000E-10  5.0000E-10   0.000    
   9    0.000      5.0000E-10  5.0000E-10  2.0000E-10  2.0000E-10  1.0000E-10  1.0000E-10  2.0000E-10  5.0000E-10   0.000    
  10    0.000      5.0000E-10  5.0000E-10  2.0000E-10  2.0000E-10  1.0000E-10  1.0000E-10  2.0000E-10  5.0000E-10  8.0000E-10
  11    0.000      1.0000E-10  1.0000E-10  1.0000E-10  1.0000E-10  1.0000E-10  1.0000E-10  2.0000E-10  5.0000E-10   0.000    
  12   1.0000E-10  1.0000E-10  1.0000E-10  1.0000E-10  1.0000E-10  1.0000E-10  1.0000E-10  1.0000E-10  2.0000E-10   0.000    
  13   1.0000E-10  1.0000E-10  2.0000E-10  2.0000E-10  2.0000E-10  2.0000E-10  2.0000E-10  1.0000E-10  1.0000E-10   0.000    
  14    0.000      2.0000E-10  5.0000E-10  5.0000E-10  5.0000E-10  5.0000E-10  5.0000E-10  2.0000E-10  1.0000E-10   0.000    
  15    0.000       0.000      8.0000E-10  8.0000E-10  8.0000E-10  8.0000E-10   0.000       0.000       0.000       0.000    

                  ET RATE =  5.000000E-10

 USING ET EXTINCTION DEPTH FROM PREVIOUS STRESS PERIOD. CURRENT PERIOD IS:       2

 USING EXTINCTION WATER CONTENT FROM PREVIOUS STRESS PERIOD. CURRENT PERIOD IS:       2

 USING AIR ENTRY PRESSURE FROM PREVIOUS STRESS PERIOD. CURRENT PERIOD IS:       2

 USING ROOT PRESSURE HEAD FROM PREVIOUS STRESS PERIOD. CURRENT PERIOD IS:       2

 USING ROOT ACTIVITY FROM PREVIOUS STRESS PERIOD. CURRENT PERIOD IS:       2

 PROCESSING AG STRESS PERIOD DATA

 READING AG STRESS PERIOD DATA

 READING IRRIGATION SEGMENT

 READING IRRIGATION WELL

 READING SUPPLEMENTAL WELL

 END PROCESSING AG STRESS PERIOD DATA OPTIONS
 
 SOLVING FOR HEAD 
                                                   Max.-Head-Change                         Max.-Flux-Residual
  Residual-Control   Outer-Iter.   Inner-Iter.     Column Row Layer    Maximum-Head-Change  Column Row Layer    Maximum-Flux-Residual          L2-NORM 
          0                 1           2             5    4     1       0.4971666878E-02       5    4    1         0.2692751490E+00      0.5607047489E+00
          0                 2           2             5    4     1      -0.4836091039E-03       5    4    1        -0.2692761807E-01      0.5590423108E-01
          0                 3           1             5    4     1       0.3293196819E-04       5    4    1         0.1884933108E-02      0.3898620859E-02

    ------------------------------------------------
       NWT REQUIRED            3 OUTER ITERATIONS 
       AND A TOTAL OF          5 INNER ITERATIONS.
    ------------------------------------------------

 OUTPUT CONTROL FOR STRESS PERIOD    2   TIME STEP    1
    PRINT BUDGET
    PRINT HEAD FOR ALL LAYERS
    SAVE BUDGET
 UBDSV1 SAVING "         STORAGE" ON UNIT 102 AT TIME STEP  1, STRESS PERIOD   2
 UBDSV2 SAVING "   CONSTANT HEAD" ON UNIT 102 AT TIME STEP  1, STRESS PERIOD   2
 UBDSV1 SAVING "FLOW RIGHT FACE " ON UNIT 102 AT TIME STEP  1, STRESS PERIOD   2
 UBDSV1 SAVING "FLOW FRONT FACE " ON UNIT 102 AT TIME STEP  1, STRESS PERIOD   2

  HEAD DEP BOUNDS   PERIOD    2   STEP     1
 BOUNDARY      1   LAYER   1   ROW    13   COL     1   RATE   -0.286571    
 BOUNDARY      2   LAYER   1   ROW    14   COL     9   RATE    0.287757    



 STREAM LISTING     PERIOD      2   STEP        1

 LAYER ROW COL. STREAM  RCH.  FLOW INTO     FLOW TO   FLOW OUT OF   OVRLND.     DIRECT     STREAM       STREAM     STREAM     STREAM   STREAMBED  STREAMBED
                SEG.NO.  NO.  STRM. RCH.    AQUIFER    STRM. RCH.    RUNOFF     PRECIP       ET          HEAD       DEPTH      WIDTH   CONDCTNC.   GRADIENT

   1    1    1     1     1    8.2500E+00  1.3178E-01   8.1182E+00  0.000E+00  0.000E+00  0.000E+00  1.09389E+03  8.424E-01  7.622E+00  3.430E-02  1.281E+00
   1    2    2     1     2    8.1182E+00  2.0240E-01   7.9158E+00  0.000E+00  0.000E+00  0.000E+00  1.08890E+03  8.367E-01  7.536E+00  5.276E-02  1.279E+00
   1    3    3     1     3    7.9158E+00  1.7099E-01   7.7448E+00  0.000E+00  0.000E+00  0.000E+00  1.08325E+03  8.302E-01  7.440E+00  4.464E-02  1.277E+00
   1    3    4     1     4    7.7448E+00  1.5612E-01   7.5887E+00  0.000E+00  0.000E+00  0.000E+00  1.07823E+03  8.244E-01  7.355E+00  4.082E-02  1.275E+00
   1    4    5     2     1    5.5887E+00  2.7178E-01   5.3169E+00  0.000E+00  0.000E+00  0.000E+00  1.07242E+03  4.843E-01  1.200E+01  7.800E-02  1.161E+00
   1    5    6     2     2    5.3169E+00  2.0828E-01   5.1086E+00  0.000E+00  0.000E+00  0.000E+00  1.06698E+03  4.714E-01  1.200E+01  6.000E-02  1.157E+00
   1    6    6     2     3    5.1086E+00  2.0760E-01   4.9010E+00  0.000E+00  0.000E+00  0.000E+00  1.06225E+03  4.600E-01  1.200E+01  6.000E-02  1.153E+00
   1    7    6     2     4    4.9010E+00  2.0691E-01   4.6941E+00  0.000E+00  0.000E+00  0.000E+00  1.05752E+03  4.485E-01  1.200E+01  6.000E-02  1.149E+00
   1    8    6     2     5    4.6941E+00  2.0621E-01   4.4879E+00  0.000E+00  0.000E+00  0.000E+00  1.05280E+03  4.368E-01  1.200E+01  6.000E-02  1.146E+00
   1    3    5     3     1    2.0000E+00  2.8252E-01   1.7175E+00  0.000E+00  0.000E+00  0.000E+00  1.07555E+03  1.909E+00  9.636E+00  7.227E-02  1.955E+00
   1    3    6     3     2    1.7175E+00  2.4905E-01   1.4684E+00  0.000E+00  0.000E+00  0.000E+00  1.07264E+03  1.727E+00  8.909E+00  6.682E-02  1.864E+00
   1    3    7     3     3    1.4684E+00  1.9718E-01   1.2712E+00  0.000E+00  0.000E+00  0.000E+00  1.06987E+03  1.555E+00  8.218E+00  5.547E-02  1.777E+00
   1    4    8     3     4    1.2712E+00  2.2567E-01   1.0456E+00  0.000E+00  0.000E+00  0.000E+00  1.06682E+03  1.364E+00  7.455E+00  6.709E-02  1.682E+00
   1    5    8     3     5    1.0456E+00  1.5790E-01   8.8768E-01  0.000E+00  0.000E+00  0.000E+00  1.06362E+03  1.164E+00  6.655E+00  4.991E-02  1.582E+00
   1    6    8     3     6    8.8768E-01  5.5980E-02   8.3170E-01  0.000E+00  0.000E+00  0.000E+00  1.06158E+03  1.036E+00  6.145E+00  1.844E-02  1.518E+00
   1    5   10     4     1    1.0000E+01  9.0919E-02   9.9091E+00  0.000E+00  0.000E+00  0.000E+00  1.07836E+03  6.368E-01  1.000E+01  2.500E-02  1.212E+00
   1    5    9     4     2    9.9091E+00  1.8158E-01   9.7275E+00  0.000E+00  0.000E+00  0.000E+00  1.07154E+03  6.315E-01  1.000E+01  5.000E-02  1.211E+00
   1    6    8     4     3    9.7275E+00  1.2689E-01   9.6006E+00  0.000E+00  0.000E+00  0.000E+00  1.06381E+03  6.256E-01  1.000E+01  3.500E-02  1.209E+00
   1    6    8     5     1    1.0432E+01  2.2686E-01   1.0205E+01  0.000E+00  0.000E+00  0.000E+00  1.05868E+03  6.790E-01  1.542E+01  6.166E-02  1.226E+00
   1    7    7     5     2    1.0205E+01  2.7894E-01   9.9265E+00  0.000E+00  0.000E+00  0.000E+00  1.05417E+03  6.732E-01  1.519E+01  7.594E-02  1.224E+00
   1    8    7     5     3    9.9265E+00  1.9221E-01   9.7343E+00  0.000E+00  0.000E+00  0.000E+00  1.04992E+03  6.676E-01  1.497E+01  5.241E-02  1.223E+00
   1    8    6     5     4    9.7343E+00  1.3577E-01   9.5985E+00  0.000E+00  0.000E+00  0.000E+00  1.04691E+03  6.637E-01  1.482E+01  3.706E-02  1.221E+00
   1    9    6     6     1    1.4086E+01  2.3167E-01   1.3855E+01  0.000E+00  0.000E+00  0.000E+00  1.04359E+03  8.612E-01  1.200E+01  6.000E-02  1.287E+00
   1   10    7     6     2    1.3855E+01  2.3116E-01   1.3624E+01  0.000E+00  0.000E+00  0.000E+00  1.03903E+03  8.526E-01  1.200E+01  6.000E-02  1.284E+00
   1   11    7     6     3    1.3624E+01  2.3064E-01   1.3393E+01  0.000E+00  0.000E+00  0.000E+00  1.03448E+03  8.440E-01  1.200E+01  6.000E-02  1.281E+00
   1   12    7     6     4    1.3393E+01  2.3012E-01   1.3163E+01  0.000E+00  0.000E+00  0.000E+00  1.02993E+03  8.353E-01  1.200E+01  6.000E-02  1.278E+00
   1   13    7     6     5    1.3163E+01 -1.7911E-02   1.3181E+01  0.000E+00  0.000E+00  0.000E+00  1.02674E+03  8.313E-01  1.200E+01  2.400E-01 -2.488E-02
   1   14    9     7     1    1.5000E+02  1.3652E+00   1.4863E+02  0.000E+00  0.000E+00  0.000E+00  1.03987E+03  2.288E+00  5.529E+01  5.593E-01  8.136E-01
   1   13    8     7     2    1.4863E+02  1.9205E+00   1.4671E+02  0.000E+00  0.000E+00  0.000E+00  1.03478E+03  2.279E+00  5.526E+01  6.148E-01  1.041E+00
   1   13    7     7     3    1.4671E+02  1.6048E+00   1.4511E+02  0.000E+00  0.000E+00  0.000E+00  1.02969E+03  2.269E+00  5.521E+01  5.584E-01  9.579E-01
   1   13    6     8     1    1.5829E+02  9.7525E-01   1.5732E+02  0.000E+00  0.000E+00  0.000E+00  1.02475E+03  2.871E+00  4.163E+01  4.242E-01  7.663E-01
   1   13    5     8     2    1.5732E+02  2.2782E-01   1.5709E+02  0.000E+00  0.000E+00  0.000E+00  1.01849E+03  2.867E+00  4.157E+01  4.236E-01  1.793E-01
   1   13    4     8     3    1.5709E+02 -2.2030E+00   1.5929E+02  0.000E+00  0.000E+00  0.000E+00  1.01225E+03  2.874E+00  4.167E+01  4.246E+00 -1.729E-01
   1   13    3     8     4    1.5929E+02 -3.4860E+00   1.6278E+02  0.000E+00  0.000E+00  0.000E+00  1.00602E+03  2.893E+00  4.195E+01  4.274E+00 -2.718E-01
   1   13    2     8     5    1.6278E+02 -2.4627E+00   1.6524E+02  0.000E+00  0.000E+00  0.000E+00  9.99788E+02  2.913E+00  4.223E+01  4.304E+00 -1.907E-01
   1   13    1     8     6    1.6524E+02 -1.9181E+00   1.6716E+02  0.000E+00  0.000E+00  0.000E+00  9.94802E+02  2.927E+00  4.245E+01  2.595E+00 -2.464E-01
   1    8    6     9     1    0.0000E+00  0.0000E+00   0.0000E+00  0.000E+00  0.000E+00  0.000E+00  1.07875E+03  0.000E+00  4.000E+00  0.000E+00  1.000E+00
   1    8    5     9     2    0.0000E+00  0.0000E+00   0.0000E+00  0.000E+00  0.000E+00  0.000E+00  1.07825E+03  0.000E+00  4.000E+00  0.000E+00  1.000E+00



 UBDSV3 SAVING "           GW ET" ON UNIT  61 AT TIME STEP  1, STRESS PERIOD   2
 UBDSV3 SAVING "    UZF RECHARGE" ON UNIT  61 AT TIME STEP  1, STRESS PERIOD   2
 UBDSV3 SAVING " SURFACE LEAKAGE" ON UNIT  61 AT TIME STEP  1, STRESS PERIOD   2
 UBDSV3 SAVING "       HORT+DUNN" ON UNIT  61 AT TIME STEP  1, STRESS PERIOD   2
 UBDSV3 SAVING "  STORAGE CHANGE" ON UNIT  61 AT TIME STEP  1, STRESS PERIOD   2


UNSATURATED ZONE PACKAGE VOLUMETRIC BUDGET FOR  TIME STEP     1 STRESS PERIOD    2
  ------------------------------------------------------------------------------



     CUMULATIVE VOLUMES      L**3       RATES FOR THIS TIME STEP      L**3/T
     ------------------                 ------------------------

           IN:                                      IN:
           ---                                      ---
        INFILTRATION =      147521.4958          INFILTRATION =           0.8475

          OUT:                                     OUT:
          ----                                     ----
              UZF ET =       65735.6246                UZF ET =           0.7498
        UZF RECHARGE =       73224.0000          UZF RECHARGE =       0.0000E+00

            IN - OUT =        8561.8711              IN - OUT =       9.7664E-02

          STORAGE:                                 STORAGE:
          --------                                 --------
      STORAGE CHANGE =        8561.8722        STORAGE CHANGE =       9.7664E-02

 PERCENT DISCREPANCY IS DIFFERENCE BETWEEN IN-OUT MINUS CHANGE IN STORAGE
 DIVIDED BY THE AVERAGE OF IN AND OUT TIMES 100

 PERCENT DISCREPANCY =           0.00     PERCENT DISCREPANCY =           0.00






 

            AG WELLS      PERIOD    2   STEP   1
 AG WELL      1   LAYER   1   ROW     6   COL     4   RATE     0.00000    
 AG WELL      2   LAYER   1   ROW     6   COL     5   RATE     0.00000    
 AG WELL      3   LAYER   1   ROW     7   COL     4   RATE     0.00000    
 AG WELL      4   LAYER   1   ROW     7   COL     5   RATE     0.00000    
 AG WELL      5   LAYER   1   ROW     8   COL     4   RATE     0.00000    
 AG WELL      6   LAYER   1   ROW     8   COL     5   RATE     0.00000    
 
 

   DIVERSION SEGMENTS     PERIOD    2   STEP   1
 
 

        SW IRRIGATION     PERIOD    2   STEP   1
 
 

        GW IRRIGATION     PERIOD    2   STEP   1
 
1
  VOLUMETRIC BUDGET FOR AGRICULTURAL FIELDS AT  END OF TIME STEP    1, STRESS PERIOD   2
  ------------------------------------------------------------------------------

     CUMULATIVE VOLUMES      L**3       RATES FOR THIS TIME STEP      L**3/T
     ------------------                 ------------------------

           IN:                                      IN:
           ---                                      ---
               AG WELLS  =           0.0000                 AG WELLS  =           0.0000
      DIVERSION SEGMENTS =           0.0000        DIVERSION SEGMENTS =           0.0000
           GW IRRIGATION =           0.0000             GW IRRIGATION =           0.0000
           SW IRRIGATION =           0.0000             SW IRRIGATION =           0.0000
        SYSTEM LOSSES GW =           0.0000          SYSTEM LOSSES GW =           0.0000
        SYSTEM LOSSES SW =           0.0000          SYSTEM LOSSES SW =           0.0000

                TOTAL IN =           0.0000                  TOTAL IN =           0.0000

          OUT:                                     OUT:
          ----                                     ----
               AG WELLS  =           0.0000                 AG WELLS  =           0.0000
      DIVERSION SEGMENTS =           0.0000        DIVERSION SEGMENTS =           0.0000
           GW IRRIGATION =           0.0000             GW IRRIGATION =           0.0000
           SW IRRIGATION =           0.0000             SW IRRIGATION =           0.0000
        SYSTEM LOSSES GW =           0.0000          SYSTEM LOSSES GW =           0.0000
        SYSTEM LOSSES SW =           0.0000          SYSTEM LOSSES SW =           0.0000

               TOTAL OUT =           0.0000                 TOTAL OUT =           0.0000

                IN - OUT =           0.0000                  IN - OUT =           0.0000

     PERCENT DISCREPANCY =           0.00         PERCENT DISCREPANCY =           0.00



1
              HEAD IN LAYER   1 AT END OF TIME STEP   1 IN STRESS PERIOD    2
  ---------------------------------------------------------------------------

           1       2       3       4       5       6       7       8       9      10
 ...................................................................................
   1  1029.26 1028.36 6999.00 6999.00 6999.00 6999.00 6999.00 6999.00 6999.00 6999.00
   2  1028.45 1027.36 1026.88 6999.00 6999.00 1028.30 1028.48 1028.46 6999.00 6999.00
   3  6999.00 1026.66 1026.39 1026.21 1026.77 1027.48 1028.04 1028.04 6999.00 6999.00
   4  1026.25 1026.11 1025.89 1025.72 1025.72 1025.86 1026.44 1027.58 1027.34 6999.00
   5  1025.90 1025.50 1025.30 1025.20 1025.26 1025.43 1025.71 1026.26 1026.91 1027.46
   6  1025.46 1024.92 1024.71 1024.66 1024.75 1024.99 1025.37 1025.92 1026.38 1027.29
   7  1025.06 1024.16 1023.99 1024.01 1024.15 1024.46 1024.94 1025.38 1025.92 6999.00
   8  6999.00 1023.02 1023.05 1023.19 1023.40 1023.81 1024.28 1024.92 1025.60 6999.00
   9  6999.00 1021.31 1021.62 1022.06 1022.44 1023.05 1023.57 1024.31 1025.54 6999.00
  10  6999.00 1018.82 1019.57 1020.57 1021.33 1022.32 1023.23 1024.33 1025.99 1026.64
  11  6999.00 1014.68 1016.10 1018.53 1020.11 1021.81 1023.34 1025.18 1027.44 6999.00
  12  1001.77 1007.67 1011.76 1015.60 1018.78 1021.71 1024.22 1027.74 1030.81 6999.00
  13   995.54 1000.36 1006.83 1012.77 1017.95 1022.45 1026.81 1031.65 1034.50 6999.00
  14  6999.00 1005.73 1008.80 1013.40 1018.06 1022.43 1027.39 1032.95 1037.43 6999.00
  15  6999.00 6999.00 1012.40 1015.08 1018.50 1021.48 6999.00 6999.00 6999.00 6999.00
1
  VOLUMETRIC BUDGET FOR ENTIRE MODEL AT END OF TIME STEP    1, STRESS PERIOD   2
  ------------------------------------------------------------------------------

     CUMULATIVE VOLUMES      L**3       RATES FOR THIS TIME STEP      L**3/T
     ------------------                 ------------------------

           IN:                                      IN:
           ---                                      ---
             STORAGE     =       65430.3203               STORAGE     =           0.7464
       CONSTANT HEAD     =           0.0000         CONSTANT HEAD     =           0.0000
     HEAD DEP BOUNDS     =       50088.7578       HEAD DEP BOUNDS     =           0.2878
      STREAM LEAKAGE     =     1812343.5000        STREAM LEAKAGE     =          11.1807
        UZF RECHARGE     =       73223.9531          UZF RECHARGE     =           0.0000
               GW ET     =           0.0000                 GW ET     =           0.0000
     SURFACE LEAKAGE     =           0.0000       SURFACE LEAKAGE     =           0.0000
           AG WELLS      =           0.0000             AG WELLS      =           0.0000

                TOTAL IN =     2001086.6250                  TOTAL IN =          12.2148

          OUT:                                     OUT:
          ----                                     ----
             STORAGE     =      161381.9375               STORAGE     =           1.8409
       CONSTANT HEAD     =           0.0000         CONSTANT HEAD     =           0.0000
     HEAD DEP BOUNDS     =       49879.4922       HEAD DEP BOUNDS     =           0.2866
      STREAM LEAKAGE     =     1789852.0000        STREAM LEAKAGE     =          10.0876
        UZF RECHARGE     =           0.0000          UZF RECHARGE     =           0.0000
               GW ET     =           0.0000                 GW ET     =           0.0000
     SURFACE LEAKAGE     =           0.0000       SURFACE LEAKAGE     =           0.0000
           AG WELLS      =           0.0000             AG WELLS      =           0.0000

               TOTAL OUT =     2001113.5000                 TOTAL OUT =          12.2151

                IN - OUT =         -26.8750                  IN - OUT =      -3.0899E-04

     PERCENT DISCREPANCY =          -0.00         PERCENT DISCREPANCY =          -0.00






         TIME SUMMARY AT END OF TIME STEP    1 IN STRESS PERIOD    2
                    SECONDS     MINUTES      HOURS       DAYS        YEARS
                    -----------------------------------------------------------
   TIME STEP LENGTH  87667.      1461.1      24.352      1.0147     2.77799E-03
 STRESS PERIOD TIME  87667.      1461.1      24.352      1.0147     2.77799E-03
         TOTAL TIME 1.74067E+05  2901.1      48.352      2.0147     5.51584E-03
1
 
 SOLVING FOR HEAD 
                                                   Max.-Head-Change                         Max.-Flux-Residual
  Residual-Control   Outer-Iter.   Inner-Iter.     Column Row Layer    Maximum-Head-Change  Column Row Layer    Maximum-Flux-Residual          L2-NORM 
          0                 1           2             5    4     1       0.4771848866E-02       5    4    1         0.2582579971E+00      0.5403926138E+00
          0                 2           2             5    4     1      -0.4641721319E-03       5    4    1        -0.2582589402E-01      0.5389205072E-01
          0                 3           1             5    4     1       0.3160838333E-04       5    4    1         0.1807812460E-02      0.3758911888E-02

    ------------------------------------------------
       NWT REQUIRED            3 OUTER ITERATIONS 
       AND A TOTAL OF          5 INNER ITERATIONS.
    ------------------------------------------------

 NO OUTPUT CONTROL FOR STRESS PERIOD    2   TIME STEP    2
 
 SOLVING FOR HEAD 
                                                   Max.-Head-Change                         Max.-Flux-Residual
  Residual-Control   Outer-Iter.   Inner-Iter.     Column Row Layer    Maximum-Head-Change  Column Row Layer    Maximum-Flux-Residual          L2-NORM 
          0                 1           2             5    4     1       0.4583646614E-02       5    4    1         0.2478846946E+00      0.5216599243E+00
          0                 2           2             5    4     1      -0.4458650693E-03       5    4    1        -0.2478855577E-01      0.5203508354E-01
          0                 3           1             5    4     1       0.3036174166E-04       5    4    1         0.1735198828E-02      0.3630483295E-02

    ------------------------------------------------
       NWT REQUIRED            3 OUTER ITERATIONS 
       AND A TOTAL OF          5 INNER ITERATIONS.
    ------------------------------------------------

 NO OUTPUT CONTROL FOR STRESS PERIOD    2   TIME STEP    3
 
 SOLVING FOR HEAD 
                                                   Max.-Head-Change                         Max.-Flux-Residual
  Residual-Control   Outer-Iter.   Inner-Iter.     Column Row Layer    Maximum-Head-Change  Column Row Layer    Maximum-Flux-Residual          L2-NORM 
          0                 1           2             5    4     1       0.4406074969E-02       5    4    1         0.2381005685E+00      0.5043754330E+00
          0                 2           2             5    4     1      -0.4285920862E-03       5    4    1        -0.2381013595E-01      0.5032141526E-01
          0                 3           1             5    4     1       0.2918551645E-04       5    4    1         0.1666709469E-02      0.3511958027E-02

    ------------------------------------------------
       NWT REQUIRED            3 OUTER ITERATIONS 
       AND A TOTAL OF          5 INNER ITERATIONS.
    ------------------------------------------------

 NO OUTPUT CONTROL FOR STRESS PERIOD    2   TIME STEP    4
 
 SOLVING FOR HEAD 
                                                   Max.-Head-Change                         Max.-Flux-Residual
  Residual-Control   Outer-Iter.   Inner-Iter.     Column Row Layer    Maximum-Head-Change  Column Row Layer    Maximum-Flux-Residual          L2-NORM 
          0                 1           2             5    4     1       0.4238682244E-02       5    4    1         0.2288806993E+00      0.4884228697E+00
          0                 2           2             5    4     1      -0.4123092439E-03       5    4    1        -0.2288814246E-01      0.4873944241E-01
          0                 3           1             5    4     1       0.2807671661E-04       5    4    1         0.1602169973E-02      0.3402466816E-02

    ------------------------------------------------
       NWT REQUIRED            3 OUTER ITERATIONS 
       AND A TOTAL OF          5 INNER ITERATIONS.
    ------------------------------------------------

 NO OUTPUT CONTROL FOR STRESS PERIOD    2   TIME STEP    5
 
 SOLVING FOR HEAD 
                                                   Max.-Head-Change                         Max.-Flux-Residual
  Residual-Control   Outer-Iter.   Inner-Iter.     Column Row Layer    Maximum-Head-Change  Column Row Layer    Maximum-Flux-Residual          L2-NORM 
          0                 1           2             5    4     1       0.4080580036E-02       5    4    1         0.2201755166E+00      0.4736649229E+00
          0                 2           2             5    4     1      -0.3969301254E-03       5    4    1        -0.2201761830E-01      0.4727546707E-01
          0                 3           1             5    4     1       0.2702945702E-04       5    4    1         0.1541233318E-02      0.3300549705E-02

    ------------------------------------------------
       NWT REQUIRED            3 OUTER ITERATIONS 
       AND A TOTAL OF          5 INNER ITERATIONS.
    ------------------------------------------------

 NO OUTPUT CONTROL FOR STRESS PERIOD    2   TIME STEP    6
 
 SOLVING FOR HEAD 
                                                   Max.-Head-Change                         Max.-Flux-Residual
  Residual-Control   Outer-Iter.   Inner-Iter.     Column Row Layer    Maximum-Head-Change  Column Row Layer    Maximum-Flux-Residual          L2-NORM 
          0                 1           2             5    4     1       0.3931653136E-02       5    4    1         0.2119781742E+00      0.4600295403E+00
          0                 2           2             5    4     1      -0.3824435221E-03       5    4    1        -0.2119787871E-01      0.4592215656E-01
          0                 3           1             5    4     1       0.2604297419E-04       5    4    1         0.1483851583E-02      0.3207476688E-02

    ------------------------------------------------
       NWT REQUIRED            3 OUTER ITERATIONS 
       AND A TOTAL OF          5 INNER ITERATIONS.
    ------------------------------------------------

 NO OUTPUT CONTROL FOR STRESS PERIOD    2   TIME STEP    7
 
 SOLVING FOR HEAD 
                                                   Max.-Head-Change                         Max.-Flux-Residual
  Residual-Control   Outer-Iter.   Inner-Iter.     Column Row Layer    Maximum-Head-Change  Column Row Layer    Maximum-Flux-Residual          L2-NORM 
          0                 1           2             5    4     1       0.3790839201E-02       5    4    1         0.2042304030E+00      0.4474016379E+00
          0                 2           2             5    4     1      -0.3687460954E-03       5    4    1        -0.2042309670E-01      0.4466867068E-01
          0                 3           1             5    4     1       0.2511023086E-04       5    4    1         0.1429616859E-02      0.3120145003E-02

    ------------------------------------------------
       NWT REQUIRED            3 OUTER ITERATIONS 
       AND A TOTAL OF          5 INNER ITERATIONS.
    ------------------------------------------------

 NO OUTPUT CONTROL FOR STRESS PERIOD    2   TIME STEP    8
 
 SOLVING FOR HEAD 
                                                   Max.-Head-Change                         Max.-Flux-Residual
  Residual-Control   Outer-Iter.   Inner-Iter.     Column Row Layer    Maximum-Head-Change  Column Row Layer    Maximum-Flux-Residual          L2-NORM 
          0                 1           2             5    4     1       0.3657864785E-02       5    4    1         0.1969163543E+00      0.4356950680E+00
          0                 2           2             5    4     1      -0.3558112468E-03       5    4    1        -0.1969168741E-01      0.4350628254E-01
          0                 3           1             5    4     1       0.2422941649E-04       5    4    1         0.1378418233E-02      0.3039655930E-02

    ------------------------------------------------
       NWT REQUIRED            3 OUTER ITERATIONS 
       AND A TOTAL OF          5 INNER ITERATIONS.
    ------------------------------------------------

 NO OUTPUT CONTROL FOR STRESS PERIOD    2   TIME STEP    9
 
 SOLVING FOR HEAD 
                                                   Max.-Head-Change                         Max.-Flux-Residual
  Residual-Control   Outer-Iter.   Inner-Iter.     Column Row Layer    Maximum-Head-Change  Column Row Layer    Maximum-Flux-Residual          L2-NORM 
          0                 1           2             5    4     1       0.3532230609E-02       5    4    1         0.1900087706E+00      0.4248474512E+00
          0                 2           2             5    4     1      -0.3435904094E-03       5    4    1        -0.1900092505E-01      0.4242879365E-01
          0                 3           1             5    4     1       0.2339722356E-04       5    4    1         0.1330064849E-02      0.2964925330E-02

    ------------------------------------------------
       NWT REQUIRED            3 OUTER ITERATIONS 
       AND A TOTAL OF          5 INNER ITERATIONS.
    ------------------------------------------------

 NO OUTPUT CONTROL FOR STRESS PERIOD    2   TIME STEP   10
 
 SOLVING FOR HEAD 
                                                   Max.-Head-Change                         Max.-Flux-Residual
  Residual-Control   Outer-Iter.   Inner-Iter.     Column Row Layer    Maximum-Head-Change  Column Row Layer    Maximum-Flux-Residual          L2-NORM 
          0                 1           2             5    4     1       0.3413719440E-02       5    4    1         0.1834948456E+00      0.4147734414E+00
          0                 2           2             5    4     1      -0.3320624520E-03       5    4    1        -0.1834952888E-01      0.4142774901E-01
          0                 3           1             5    4     1       0.2261221382E-04       5    4    1         0.1284467161E-02      0.2895291327E-02

    ------------------------------------------------
       NWT REQUIRED            3 OUTER ITERATIONS 
       AND A TOTAL OF          5 INNER ITERATIONS.
    ------------------------------------------------

 NO OUTPUT CONTROL FOR STRESS PERIOD    2   TIME STEP   11
 
 SOLVING FOR HEAD 
                                                   Max.-Head-Change                         Max.-Flux-Residual
  Residual-Control   Outer-Iter.   Inner-Iter.     Column Row Layer    Maximum-Head-Change  Column Row Layer    Maximum-Flux-Residual          L2-NORM 
          0                 1           2             5    4     1       0.3301407998E-02       5    4    1         0.1773240514E+00      0.4054010488E+00
          0                 2           2             5    4     1      -0.3211375633E-03       5    4    1        -0.1773244614E-01      0.4049601151E-01
          0                 3           1             5    4     1       0.2186826997E-04       5    4    1         0.1241271389E-02      0.2830718806E-02

    ------------------------------------------------
       NWT REQUIRED            3 OUTER ITERATIONS 
       AND A TOTAL OF          5 INNER ITERATIONS.
    ------------------------------------------------

 NO OUTPUT CONTROL FOR STRESS PERIOD    2   TIME STEP   12
 
 SOLVING FOR HEAD 
                                                   Max.-Head-Change                         Max.-Flux-Residual
  Residual-Control   Outer-Iter.   Inner-Iter.     Column Row Layer    Maximum-Head-Change  Column Row Layer    Maximum-Flux-Residual          L2-NORM 
          0                 1           2             5    4     1       0.3195383374E-02       5    4    1         0.1715009104E+00      0.3966851202E+00
          0                 2           2             5    4     1      -0.3108242143E-03       5    4    1        -0.1715012899E-01      0.3962953515E-01
          0                 3           1             5    4     1       0.2116597020E-04       5    4    1         0.1200509189E-02      0.2770438961E-02

    ------------------------------------------------
       NWT REQUIRED            3 OUTER ITERATIONS 
       AND A TOTAL OF          5 INNER ITERATIONS.
    ------------------------------------------------

 NO OUTPUT CONTROL FOR STRESS PERIOD    2   TIME STEP   13
 
 SOLVING FOR HEAD 
                                                   Max.-Head-Change                         Max.-Flux-Residual
  Residual-Control   Outer-Iter.   Inner-Iter.     Column Row Layer    Maximum-Head-Change  Column Row Layer    Maximum-Flux-Residual          L2-NORM 
          0                 1           2             5    4     1       0.3094775221E-02       5    4    1         0.1659775448E+00      0.3885592615E+00
          0                 2           2             5    4     1      -0.3010377445E-03       5    4    1        -0.1659778965E-01      0.3882158098E-01
          0                 3           1             5    4     1       0.2049954892E-04       5    4    1         0.1161845449E-02      0.2713995864E-02

    ------------------------------------------------
       NWT REQUIRED            3 OUTER ITERATIONS 
       AND A TOTAL OF          5 INNER ITERATIONS.
    ------------------------------------------------

 NO OUTPUT CONTROL FOR STRESS PERIOD    2   TIME STEP   14
 
 SOLVING FOR HEAD 
                                                   Max.-Head-Change                         Max.-Flux-Residual
  Residual-Control   Outer-Iter.   Inner-Iter.     Column Row Layer    Maximum-Head-Change  Column Row Layer    Maximum-Flux-Residual          L2-NORM 
          0                 1           2             5    4     1       0.2999970496E-02       5    4    1         0.1607742558E+00      0.3809926144E+00
          0                 2           2             5    4     1      -0.2918157933E-03       5    4    1        -0.1607745822E-01      0.3806886680E-01
          0                 3           1             5    4     1       0.1987156858E-04       5    4    1         0.1125422250E-02      0.2662045226E-02

    ------------------------------------------------
       NWT REQUIRED            3 OUTER ITERATIONS 
       AND A TOTAL OF          5 INNER ITERATIONS.
    ------------------------------------------------

 NO OUTPUT CONTROL FOR STRESS PERIOD    2   TIME STEP   15
 
 SOLVING FOR HEAD 
                                                   Max.-Head-Change                         Max.-Flux-Residual
  Residual-Control   Outer-Iter.   Inner-Iter.     Column Row Layer    Maximum-Head-Change  Column Row Layer    Maximum-Flux-Residual          L2-NORM 
          0                 1           2             5    4     1       0.2909894024E-02       5    4    1         0.1558326222E+00      0.3739167242E+00
          0                 2           2             5    4     1      -0.2830537752E-03       5    4    1        -0.1558329251E-01      0.3736475261E-01
          0                 3           1             5    4     1       0.1927490840E-04       5    4    1         0.1090830656E-02      0.2613179974E-02

    ------------------------------------------------
       NWT REQUIRED            3 OUTER ITERATIONS 
       AND A TOTAL OF          5 INNER ITERATIONS.
    ------------------------------------------------

 NO OUTPUT CONTROL FOR STRESS PERIOD    2   TIME STEP   16
 
 SOLVING FOR HEAD 
                                                   Max.-Head-Change                         Max.-Flux-Residual
  Residual-Control   Outer-Iter.   Inner-Iter.     Column Row Layer    Maximum-Head-Change  Column Row Layer    Maximum-Flux-Residual          L2-NORM 
          0                 1           2             5    4     1       0.2824734754E-02       5    4    1         0.1511623018E+00      0.3673108398E+00
          0                 2           2             5    4     1      -0.2747700697E-03       5    4    1        -0.1511625835E-01      0.3670722980E-01
          0                 3           1             5    4     1       0.1871081966E-04       5    4    1         0.1058138277E-02      0.2567322380E-02

    ------------------------------------------------
       NWT REQUIRED            3 OUTER ITERATIONS 
       AND A TOTAL OF          5 INNER ITERATIONS.
    ------------------------------------------------

 NO OUTPUT CONTROL FOR STRESS PERIOD    2   TIME STEP   17
 
 SOLVING FOR HEAD 
                                                   Max.-Head-Change                         Max.-Flux-Residual
  Residual-Control   Outer-Iter.   Inner-Iter.     Column Row Layer    Maximum-Head-Change  Column Row Layer    Maximum-Flux-Residual          L2-NORM 
          0                 1           2             5    4     1       0.2743946317E-02       5    4    1         0.1467338490E+00      0.3611125834E+00
          0                 2           2             5    4     1      -0.2669115301E-03       5    4    1        -0.1467341113E-01      0.3609012200E-01
          0                 3           1             5    4     1       0.1817568317E-04       5    4    1         0.1027138984E-02      0.2524302280E-02

    ------------------------------------------------
       NWT REQUIRED            3 OUTER ITERATIONS 
       AND A TOTAL OF          5 INNER ITERATIONS.
    ------------------------------------------------

 NO OUTPUT CONTROL FOR STRESS PERIOD    2   TIME STEP   18
 
 SOLVING FOR HEAD 
                                                   Max.-Head-Change                         Max.-Flux-Residual
  Residual-Control   Outer-Iter.   Inner-Iter.     Column Row Layer    Maximum-Head-Change  Column Row Layer    Maximum-Flux-Residual          L2-NORM 
          0                 1           2             5    4     1       0.2667267928E-02       5    4    1         0.1425320160E+00      0.3553067073E+00
          0                 2           2             5    4     1      -0.2594527879E-03       5    4    1        -0.1425322602E-01      0.3551210940E-01
          0                 3           1             5    4     1       0.1766777144E-04       5    4    1         0.9977260479E-03      0.2484093864E-02

    ------------------------------------------------
       NWT REQUIRED            3 OUTER ITERATIONS 
       AND A TOTAL OF          5 INNER ITERATIONS.
    ------------------------------------------------

 NO OUTPUT CONTROL FOR STRESS PERIOD    2   TIME STEP   19
 
 SOLVING FOR HEAD 
                                                   Max.-Head-Change                         Max.-Flux-Residual
  Residual-Control   Outer-Iter.   Inner-Iter.     Column Row Layer    Maximum-Head-Change  Column Row Layer    Maximum-Flux-Residual          L2-NORM 
          0                 1           2             5    4     1       0.2594683874E-02       5    4    1         0.1385563632E+00      0.3498584713E+00
          0                 2           2             5    4     1      -0.2523923151E-03       5    4    1        -0.1385565912E-01      0.3496913352E-01
          0                 3           1             5    4     1       0.1718697963E-04       5    4    1         0.9698963459E-03      0.2446047290E-02

    ------------------------------------------------
       NWT REQUIRED            3 OUTER ITERATIONS 
       AND A TOTAL OF          5 INNER ITERATIONS.
    ------------------------------------------------

 NO OUTPUT CONTROL FOR STRESS PERIOD    2   TIME STEP   20
 
 SOLVING FOR HEAD 
                                                   Max.-Head-Change                         Max.-Flux-Residual
  Residual-Control   Outer-Iter.   Inner-Iter.     Column Row Layer    Maximum-Head-Change  Column Row Layer    Maximum-Flux-Residual          L2-NORM 
          0                 1           2             5    4     1       0.2525710318E-02       5    4    1         0.1347799133E+00      0.3447335523E+00
          0                 2           2             5    4     1      -0.2456830467E-03       5    4    1        -0.1347801258E-01      0.3445867527E-01
          0                 3           1             5    4     1       0.1673010413E-04       5    4    1         0.9434610924E-03      0.2410737664E-02

    ------------------------------------------------
       NWT REQUIRED            3 OUTER ITERATIONS 
       AND A TOTAL OF          5 INNER ITERATIONS.
    ------------------------------------------------

 NO OUTPUT CONTROL FOR STRESS PERIOD    2   TIME STEP   21
 
 SOLVING FOR HEAD 
                                                   Max.-Head-Change                         Max.-Flux-Residual
  Residual-Control   Outer-Iter.   Inner-Iter.     Column Row Layer    Maximum-Head-Change  Column Row Layer    Maximum-Flux-Residual          L2-NORM 
          0                 1           2             5    4     1       0.2460369697E-02       5    4    1         0.1312037428E+00      0.3399136851E+00
          0                 2           2             5    4     1      -0.2393271658E-03       5    4    1        -0.1312039414E-01      0.3397835671E-01
          0                 3           1             5    4     1       0.1629729285E-04       5    4    1         0.9184278090E-03      0.2377290751E-02

    ------------------------------------------------
       NWT REQUIRED            3 OUTER ITERATIONS 
       AND A TOTAL OF          5 INNER ITERATIONS.
    ------------------------------------------------

 NO OUTPUT CONTROL FOR STRESS PERIOD    2   TIME STEP   22
 
 SOLVING FOR HEAD 
                                                   Max.-Head-Change                         Max.-Flux-Residual
  Residual-Control   Outer-Iter.   Inner-Iter.     Column Row Layer    Maximum-Head-Change  Column Row Layer    Maximum-Flux-Residual          L2-NORM 
          0                 1           2             5    4     1       0.2398203527E-02       5    4    1         0.1278028525E+00      0.3353733044E+00
          0                 2           2             5    4     1      -0.2332800742E-03       5    4    1        -0.1278030381E-01      0.3352587781E-01
          0                 3           1             5    4     1       0.1588550905E-04       5    4    1         0.8946214930E-03      0.2345740745E-02

    ------------------------------------------------
       NWT REQUIRED            3 OUTER ITERATIONS 
       AND A TOTAL OF          5 INNER ITERATIONS.
    ------------------------------------------------

 NO OUTPUT CONTROL FOR STRESS PERIOD    2   TIME STEP   23
 
 SOLVING FOR HEAD 
                                                   Max.-Head-Change                         Max.-Flux-Residual
  Residual-Control   Outer-Iter.   Inner-Iter.     Column Row Layer    Maximum-Head-Change  Column Row Layer    Maximum-Flux-Residual          L2-NORM 
          0                 1           2             5    4     1       0.2339267473E-02       5    4    1         0.1245796789E+00      0.3310885217E+00
          0                 2           2             5    4     1      -0.2275471861E-03       5    4    1        -0.1245798528E-01      0.3309851874E-01
          0                 3           1             5    4     1       0.1549512122E-04       5    4    1         0.8720591832E-03      0.2315882109E-02

    ------------------------------------------------
       NWT REQUIRED            3 OUTER ITERATIONS 
       AND A TOTAL OF          5 INNER ITERATIONS.
    ------------------------------------------------

 NO OUTPUT CONTROL FOR STRESS PERIOD    2   TIME STEP   24
 
 SOLVING FOR HEAD 
                                                   Max.-Head-Change                         Max.-Flux-Residual
  Residual-Control   Outer-Iter.   Inner-Iter.     Column Row Layer    Maximum-Head-Change  Column Row Layer    Maximum-Flux-Residual          L2-NORM 
          0                 1           2             5    4     1       0.2283365698E-02       5    4    1         0.1215238906E+00      0.3270408771E+00
          0                 2           2             5    4     1      -0.2221094521E-03       5    4    1        -0.1215240536E-01      0.3269509909E-01
          0                 3           1             5    4     1       0.1512483193E-04       5    4    1         0.8506685831E-03      0.2287891361E-02

    ------------------------------------------------
       NWT REQUIRED            3 OUTER ITERATIONS 
       AND A TOTAL OF          5 INNER ITERATIONS.
    ------------------------------------------------

 NO OUTPUT CONTROL FOR STRESS PERIOD    2   TIME STEP   25
 
 SOLVING FOR HEAD 
                                                   Max.-Head-Change                         Max.-Flux-Residual
  Residual-Control   Outer-Iter.   Inner-Iter.     Column Row Layer    Maximum-Head-Change  Column Row Layer    Maximum-Flux-Residual          L2-NORM 
          0                 1           2             5    4     1       0.2230079846E-02       5    4    1         0.1186123882E+00      0.3232037862E+00
          0                 2           2             5    4     1      -0.2169261767E-03       5    4    1        -0.1186125409E-01      0.3231225773E-01
          0                 3           1             5    4     1       0.1477187043E-04       5    4    1         0.8302879903E-03      0.2261016746E-02

    ------------------------------------------------
       NWT REQUIRED            3 OUTER ITERATIONS 
       AND A TOTAL OF          5 INNER ITERATIONS.
    ------------------------------------------------

 NO OUTPUT CONTROL FOR STRESS PERIOD    2   TIME STEP   26
 
 SOLVING FOR HEAD 
                                                   Max.-Head-Change                         Max.-Flux-Residual
  Residual-Control   Outer-Iter.   Inner-Iter.     Column Row Layer    Maximum-Head-Change  Column Row Layer    Maximum-Flux-Residual          L2-NORM 
          0                 1           2             5    4     1       0.2179256357E-02       5    4    1         0.1158365170E+00      0.3195661512E+00
          0                 2           2             5    4     1      -0.2119824240E-03       5    4    1        -0.1158366605E-01      0.3194946474E-01
          0                 3           1             5    4     1       0.1443521974E-04       5    4    1         0.8108568304E-03      0.2235872331E-02

    ------------------------------------------------
       NWT REQUIRED            3 OUTER ITERATIONS 
       AND A TOTAL OF          5 INNER ITERATIONS.
    ------------------------------------------------

 NO OUTPUT CONTROL FOR STRESS PERIOD    2   TIME STEP   27
 
 SOLVING FOR HEAD 
                                                   Max.-Head-Change                         Max.-Flux-Residual
  Residual-Control   Outer-Iter.   Inner-Iter.     Column Row Layer    Maximum-Head-Change  Column Row Layer    Maximum-Flux-Residual          L2-NORM 
          0                 1           2             5    4     1       0.2131225068E-02       5    4    1         0.1132144787E+00      0.3161253915E+00
          0                 2           2             5    4     1      -0.2073102767E-03       5    4    1        -0.1132146134E-01      0.3160621951E-01
          0                 3           1             5    4     1       0.1411706459E-04       5    4    1         0.7925025059E-03      0.2211814484E-02

    ------------------------------------------------
       NWT REQUIRED            3 OUTER ITERATIONS 
       AND A TOTAL OF          5 INNER ITERATIONS.
    ------------------------------------------------

 NO OUTPUT CONTROL FOR STRESS PERIOD    2   TIME STEP   28
 
 SOLVING FOR HEAD 
                                                   Max.-Head-Change                         Max.-Flux-Residual
  Residual-Control   Outer-Iter.   Inner-Iter.     Column Row Layer    Maximum-Head-Change  Column Row Layer    Maximum-Flux-Residual          L2-NORM 
          0                 1           2             5    4     1       0.2085111076E-02       5    4    1         0.1106979657E+00      0.3128491516E+00
          0                 2           2             5    4     1      -0.2028246317E-03       5    4    1        -0.1106980924E-01      0.3127911464E-01
          0                 3           1             5    4     1       0.1381160957E-04       5    4    1         0.7748868904E-03      0.2188973678E-02

    ------------------------------------------------
       NWT REQUIRED            3 OUTER ITERATIONS 
       AND A TOTAL OF          5 INNER ITERATIONS.
    ------------------------------------------------

 NO OUTPUT CONTROL FOR STRESS PERIOD    2   TIME STEP   29
 
 SOLVING FOR HEAD 
                                                   Max.-Head-Change                         Max.-Flux-Residual
  Residual-Control   Outer-Iter.   Inner-Iter.     Column Row Layer    Maximum-Head-Change  Column Row Layer    Maximum-Flux-Residual          L2-NORM 
          0                 1           2             5    4     1       0.2041517049E-02       5    4    1         0.1083201072E+00      0.3097361467E+00
          0                 2           2             5    4     1      -0.1985841105E-03       5    4    1        -0.1083202265E-01      0.3096867111E-01
          0                 3           1             5    4     1       0.1352284593E-04       5    4    1         0.7582417979E-03      0.2167358548E-02

    ------------------------------------------------
       NWT REQUIRED            3 OUTER ITERATIONS 
       AND A TOTAL OF          5 INNER ITERATIONS.
    ------------------------------------------------

 NO OUTPUT CONTROL FOR STRESS PERIOD    2   TIME STEP   30



 STREAM LISTING     PERIOD      2   STEP       30

 LAYER ROW COL. STREAM  RCH.  FLOW INTO     FLOW TO   FLOW OUT OF   OVRLND.     DIRECT     STREAM       STREAM     STREAM     STREAM   STREAMBED  STREAMBED
                SEG.NO.  NO.  STRM. RCH.    AQUIFER    STRM. RCH.    RUNOFF     PRECIP       ET          HEAD       DEPTH      WIDTH   CONDCTNC.   GRADIENT

   1    1    1     1     1    8.2500E+00  1.3178E-01   8.1182E+00  0.000E+00  0.000E+00  0.000E+00  1.09389E+03  8.424E-01  7.622E+00  3.430E-02  1.281E+00
   1    2    2     1     2    8.1182E+00  2.0240E-01   7.9158E+00  0.000E+00  0.000E+00  0.000E+00  1.08890E+03  8.367E-01  7.536E+00  5.276E-02  1.279E+00
   1    3    3     1     3    7.9158E+00  1.7099E-01   7.7448E+00  0.000E+00  0.000E+00  0.000E+00  1.08325E+03  8.302E-01  7.440E+00  4.464E-02  1.277E+00
   1    3    4     1     4    7.7448E+00  1.5612E-01   7.5887E+00  0.000E+00  0.000E+00  0.000E+00  1.07823E+03  8.244E-01  7.355E+00  4.082E-02  1.275E+00
   1    4    5     2     1    5.5887E+00  2.7178E-01   5.3169E+00  0.000E+00  0.000E+00  0.000E+00  1.07242E+03  4.843E-01  1.200E+01  7.800E-02  1.161E+00
   1    5    6     2     2    5.3169E+00  2.0828E-01   5.1087E+00  0.000E+00  0.000E+00  0.000E+00  1.06698E+03  4.714E-01  1.200E+01  6.000E-02  1.157E+00
   1    6    6     2     3    5.1087E+00  2.0760E-01   4.9010E+00  0.000E+00  0.000E+00  0.000E+00  1.06225E+03  4.600E-01  1.200E+01  6.000E-02  1.153E+00
   1    7    6     2     4    4.9010E+00  2.0691E-01   4.6941E+00  0.000E+00  0.000E+00  0.000E+00  1.05752E+03  4.485E-01  1.200E+01  6.000E-02  1.149E+00
   1    8    6     2     5    4.6941E+00  2.0621E-01   4.4879E+00  0.000E+00  0.000E+00  0.000E+00  1.05280E+03  4.368E-01  1.200E+01  6.000E-02  1.146E+00
   1    3    5     3     1    2.0000E+00  2.8252E-01   1.7175E+00  0.000E+00  0.000E+00  0.000E+00  1.07555E+03  1.909E+00  9.636E+00  7.227E-02  1.955E+00
   1    3    6     3     2    1.7175E+00  2.4905E-01   1.4684E+00  0.000E+00  0.000E+00  0.000E+00  1.07264E+03  1.727E+00  8.909E+00  6.682E-02  1.864E+00
   1    3    7     3     3    1.4684E+00  1.9718E-01   1.2712E+00  0.000E+00  0.000E+00  0.000E+00  1.06987E+03  1.555E+00  8.218E+00  5.547E-02  1.777E+00
   1    4    8     3     4    1.2712E+00  2.2567E-01   1.0456E+00  0.000E+00  0.000E+00  0.000E+00  1.06682E+03  1.364E+00  7.455E+00  6.709E-02  1.682E+00
   1    5    8     3     5    1.0456E+00  1.5790E-01   8.8768E-01  0.000E+00  0.000E+00  0.000E+00  1.06362E+03  1.164E+00  6.655E+00  4.991E-02  1.582E+00
   1    6    8     3     6    8.8768E-01  5.5980E-02   8.3170E-01  0.000E+00  0.000E+00  0.000E+00  1.06158E+03  1.036E+00  6.145E+00  1.844E-02  1.518E+00
   1    5   10     4     1    1.0000E+01  9.0919E-02   9.9091E+00  0.000E+00  0.000E+00  0.000E+00  1.07836E+03  6.368E-01  1.000E+01  2.500E-02  1.212E+00
   1    5    9     4     2    9.9091E+00  1.8158E-01   9.7275E+00  0.000E+00  0.000E+00  0.000E+00  1.07154E+03  6.315E-01  1.000E+01  5.000E-02  1.211E+00
   1    6    8     4     3    9.7275E+00  1.2689E-01   9.6006E+00  0.000E+00  0.000E+00  0.000E+00  1.06381E+03  6.256E-01  1.000E+01  3.500E-02  1.209E+00
   1    6    8     5     1    1.0432E+01  2.2686E-01   1.0205E+01  0.000E+00  0.000E+00  0.000E+00  1.05868E+03  6.790E-01  1.542E+01  6.166E-02  1.226E+00
   1    7    7     5     2    1.0205E+01  2.7894E-01   9.9265E+00  0.000E+00  0.000E+00  0.000E+00  1.05417E+03  6.732E-01  1.519E+01  7.594E-02  1.224E+00
   1    8    7     5     3    9.9265E+00  1.9221E-01   9.7343E+00  0.000E+00  0.000E+00  0.000E+00  1.04992E+03  6.676E-01  1.497E+01  5.241E-02  1.223E+00
   1    8    6     5     4    9.7343E+00  1.3577E-01   9.5985E+00  0.000E+00  0.000E+00  0.000E+00  1.04691E+03  6.637E-01  1.482E+01  3.706E-02  1.221E+00
   1    9    6     6     1    1.4086E+01  2.3167E-01   1.3855E+01  0.000E+00  0.000E+00  0.000E+00  1.04359E+03  8.612E-01  1.200E+01  6.000E-02  1.287E+00
   1   10    7     6     2    1.3855E+01  2.3116E-01   1.3624E+01  0.000E+00  0.000E+00  0.000E+00  1.03903E+03  8.526E-01  1.200E+01  6.000E-02  1.284E+00
   1   11    7     6     3    1.3624E+01  2.3064E-01   1.3393E+01  0.000E+00  0.000E+00  0.000E+00  1.03448E+03  8.440E-01  1.200E+01  6.000E-02  1.281E+00
   1   12    7     6     4    1.3393E+01  2.3012E-01   1.3163E+01  0.000E+00  0.000E+00  0.000E+00  1.02993E+03  8.353E-01  1.200E+01  6.000E-02  1.278E+00
   1   13    7     6     5    1.3163E+01 -2.0977E-02   1.3184E+01  0.000E+00  0.000E+00  0.000E+00  1.02674E+03  8.314E-01  1.200E+01  2.400E-01 -2.913E-02
   1   14    9     7     1    1.5000E+02  1.3658E+00   1.4863E+02  0.000E+00  0.000E+00  0.000E+00  1.03987E+03  2.288E+00  5.529E+01  5.593E-01  8.140E-01
   1   13    8     7     2    1.4863E+02  1.9203E+00   1.4671E+02  0.000E+00  0.000E+00  0.000E+00  1.03478E+03  2.279E+00  5.526E+01  6.148E-01  1.041E+00
   1   13    7     7     3    1.4671E+02  1.5976E+00   1.4512E+02  0.000E+00  0.000E+00  0.000E+00  1.02969E+03  2.270E+00  5.521E+01  5.584E-01  9.537E-01
   1   13    6     8     1    1.5830E+02  9.7214E-01   1.5733E+02  0.000E+00  0.000E+00  0.000E+00  1.02475E+03  2.871E+00  4.163E+01  4.242E-01  7.639E-01
   1   13    5     8     2    1.5733E+02  2.2507E-01   1.5710E+02  0.000E+00  0.000E+00  0.000E+00  1.01849E+03  2.867E+00  4.157E+01  4.236E-01  1.771E-01
   1   13    4     8     3    1.5710E+02 -2.2709E+00   1.5937E+02  0.000E+00  0.000E+00  0.000E+00  1.01225E+03  2.874E+00  4.167E+01  4.246E+00 -1.783E-01
   1   13    3     8     4    1.5937E+02 -3.5514E+00   1.6293E+02  0.000E+00  0.000E+00  0.000E+00  1.00602E+03  2.894E+00  4.196E+01  4.276E+00 -2.769E-01
   1   13    2     8     5    1.6293E+02 -2.5395E+00   1.6546E+02  0.000E+00  0.000E+00  0.000E+00  9.99789E+02  2.914E+00  4.225E+01  4.306E+00 -1.966E-01
   1   13    1     8     6    1.6546E+02 -1.9547E+00   1.6742E+02  0.000E+00  0.000E+00  0.000E+00  9.94804E+02  2.929E+00  4.247E+01  2.597E+00 -2.509E-01
   1    8    6     9     1    0.0000E+00  0.0000E+00   0.0000E+00  0.000E+00  0.000E+00  0.000E+00  1.07875E+03  0.000E+00  4.000E+00  0.000E+00  1.000E+00
   1    8    5     9     2    0.0000E+00  0.0000E+00   0.0000E+00  0.000E+00  0.000E+00  0.000E+00  1.07825E+03  0.000E+00  4.000E+00  0.000E+00  1.000E+00





UNSATURATED ZONE PACKAGE VOLUMETRIC BUDGET FOR  TIME STEP    30 STRESS PERIOD    2
  ------------------------------------------------------------------------------



     CUMULATIVE VOLUMES      L**3       RATES FOR THIS TIME STEP      L**3/T
     ------------------                 ------------------------

           IN:                                      IN:
           ---                                      ---
        INFILTRATION =     2302148.8727          INFILTRATION =           0.8475

          OUT:                                     OUT:
          ----                                     ----
              UZF ET =     1972485.7128                UZF ET =           0.7500
        UZF RECHARGE =       73224.0000          UZF RECHARGE =       0.0000E+00

            IN - OUT =      256439.1600              IN - OUT =       9.7500E-02

          STORAGE:                                 STORAGE:
          --------                                 --------
      STORAGE CHANGE =      256439.1819        STORAGE CHANGE =       9.7500E-02

 PERCENT DISCREPANCY IS DIFFERENCE BETWEEN IN-OUT MINUS CHANGE IN STORAGE
 DIVIDED BY THE AVERAGE OF IN AND OUT TIMES 100

 PERCENT DISCREPANCY =          -0.00     PERCENT DISCREPANCY =           0.00






1
  VOLUMETRIC BUDGET FOR AGRICULTURAL FIELDS AT  END OF TIME STEP   30, STRESS PERIOD   2
  ------------------------------------------------------------------------------

     CUMULATIVE VOLUMES      L**3       RATES FOR THIS TIME STEP      L**3/T
     ------------------                 ------------------------

           IN:                                      IN:
           ---                                      ---
               AG WELLS  =           0.0000                 AG WELLS  =           0.0000
      DIVERSION SEGMENTS =           0.0000        DIVERSION SEGMENTS =           0.0000
           GW IRRIGATION =           0.0000             GW IRRIGATION =           0.0000
           SW IRRIGATION =           0.0000             SW IRRIGATION =           0.0000
        SYSTEM LOSSES GW =           0.0000          SYSTEM LOSSES GW =           0.0000
        SYSTEM LOSSES SW =           0.0000          SYSTEM LOSSES SW =           0.0000

                TOTAL IN =           0.0000                  TOTAL IN =           0.0000

          OUT:                                     OUT:
          ----                                     ----
               AG WELLS  =           0.0000                 AG WELLS  =           0.0000
      DIVERSION SEGMENTS =           0.0000        DIVERSION SEGMENTS =           0.0000
           GW IRRIGATION =           0.0000             GW IRRIGATION =           0.0000
           SW IRRIGATION =           0.0000             SW IRRIGATION =           0.0000
        SYSTEM LOSSES GW =           0.0000          SYSTEM LOSSES GW =           0.0000
        SYSTEM LOSSES SW =           0.0000          SYSTEM LOSSES SW =           0.0000

               TOTAL OUT =           0.0000                 TOTAL OUT =           0.0000

                IN - OUT =           0.0000                  IN - OUT =           0.0000

     PERCENT DISCREPANCY =           0.00         PERCENT DISCREPANCY =           0.00



1
  VOLUMETRIC BUDGET FOR ENTIRE MODEL AT END OF TIME STEP   30, STRESS PERIOD   2
  ------------------------------------------------------------------------------

     CUMULATIVE VOLUMES      L**3       RATES FOR THIS TIME STEP      L**3/T
     ------------------                 ------------------------

           IN:                                      IN:
           ---                                      ---
             STORAGE     =     1698293.2500               STORAGE     =           0.5858
       CONSTANT HEAD     =           0.0000         CONSTANT HEAD     =           0.0000
     HEAD DEP BOUNDS     =      781723.8750       HEAD DEP BOUNDS     =           0.2878
      STREAM LEAKAGE     =    30218964.0000        STREAM LEAKAGE     =          11.1681
        UZF RECHARGE     =       73223.9531          UZF RECHARGE     =           0.0000
               GW ET     =           0.0000                 GW ET     =           0.0000
     SURFACE LEAKAGE     =           0.0000       SURFACE LEAKAGE     =           0.0000
           AG WELLS      =           0.0000             AG WELLS      =           0.0000

                TOTAL IN =    32772204.0000                  TOTAL IN =          12.0417

          OUT:                                     OUT:
          ----                                     ----
             STORAGE     =     4124340.2500               STORAGE     =           1.4173
       CONSTANT HEAD     =           0.0000         CONSTANT HEAD     =           0.0000
     HEAD DEP BOUNDS     =      779352.1875       HEAD DEP BOUNDS     =           0.2872
      STREAM LEAKAGE     =    27869200.0000        STREAM LEAKAGE     =          10.3374
        UZF RECHARGE     =           0.0000          UZF RECHARGE     =           0.0000
               GW ET     =           0.0000                 GW ET     =           0.0000
     SURFACE LEAKAGE     =           0.0000       SURFACE LEAKAGE     =           0.0000
           AG WELLS      =           0.0000             AG WELLS      =           0.0000

               TOTAL OUT =    32772892.0000                 TOTAL OUT =          12.0419

                IN - OUT =        -688.0000                  IN - OUT =      -2.3460E-04

     PERCENT DISCREPANCY =          -0.00         PERCENT DISCREPANCY =          -0.00






         TIME SUMMARY AT END OF TIME STEP   30 IN STRESS PERIOD    2
                    SECONDS     MINUTES      HOURS       DAYS        YEARS
                    -----------------------------------------------------------
   TIME STEP LENGTH  87667.      1461.1      24.352      1.0147     2.77799E-03
 STRESS PERIOD TIME 2.63000E+06  43833.      730.56      30.440     8.33397E-02
         TOTAL TIME 2.71640E+06  45273.      754.56      31.440     8.60775E-02
1
1
                            STRESS PERIOD NO.    3, LENGTH =   2630000.    
                            -----------------------------------------------

                              NUMBER OF TIME STEPS =    30

                               MULTIPLIER FOR DELT =     1.000

                            INITIAL TIME STEP SIZE =   87666.66    

 REUSING NON-PARAMETER GHB CELLS FROM LAST STRESS PERIOD

      2 GHB CELLS

 REUSING STREAM SEGMENT DATA FROM LAST STRESS PERIOD



            AREAL INFILTRATION RATE
 READING ON UNIT   19 WITH FORMAT: (FREE)              

            1           2           3           4           5           6           7           8           9          10
 ........................................................................................................................
   1   1.0000E-10  2.0000E-10   0.000       0.000       0.000       0.000       0.000       0.000       0.000       0.000    
   2   2.0000E-10  1.0000E-10  2.0000E-10   0.000       0.000      8.0000E-10  8.0000E-10  5.0000E-10   0.000       0.000    
   3    0.000      5.0000E-10  1.0000E-10  1.0000E-10  8.0000E-10  8.0000E-10  5.0000E-10  5.0000E-10   0.000       0.000    
   4   8.0000E-10  5.0000E-10  1.0000E-10  1.0000E-10  1.0000E-10  1.0000E-10  1.0000E-10  1.0000E-10  2.0000E-10   0.000    
   5   8.0000E-10  5.0000E-10  1.0000E-10  1.0000E-10  1.0000E-10  1.0000E-10  1.0000E-10  1.0000E-10  1.0000E-10  1.0000E-10
   6   8.0000E-10  5.0000E-10  5.0000E-10  2.0000E-10  2.0000E-10  1.0000E-10  1.0000E-10  1.0000E-10  1.0000E-10  5.0000E-10
   7   8.0000E-10  5.0000E-10  5.0000E-10  2.0000E-10  2.0000E-10  1.0000E-10  1.0000E-10  2.0000E-10  2.0000E-10   0.000    
   8    0.000      5.0000E-10  5.0000E-10  2.0000E-10  2.0000E-10  1.0000E-10  1.0000E-10  2.0000E-10  5.0000E-10   0.000    
   9    0.000      5.0000E-10  5.0000E-10  2.0000E-10  2.0000E-10  1.0000E-10  1.0000E-10  2.0000E-10  5.0000E-10   0.000    
  10    0.000      5.0000E-10  5.0000E-10  2.0000E-10  2.0000E-10  1.0000E-10  1.0000E-10  2.0000E-10  5.0000E-10  8.0000E-10
  11    0.000      1.0000E-10  1.0000E-10  1.0000E-10  1.0000E-10  1.0000E-10  1.0000E-10  2.0000E-10  5.0000E-10   0.000    
  12   1.0000E-10  1.0000E-10  1.0000E-10  1.0000E-10  1.0000E-10  1.0000E-10  1.0000E-10  1.0000E-10  2.0000E-10   0.000    
  13   1.0000E-10  1.0000E-10  2.0000E-10  2.0000E-10  2.0000E-10  2.0000E-10  2.0000E-10  1.0000E-10  1.0000E-10   0.000    
  14    0.000      2.0000E-10  5.0000E-10  5.0000E-10  5.0000E-10  5.0000E-10  5.0000E-10  2.0000E-10  1.0000E-10   0.000    
  15    0.000       0.000      8.0000E-10  8.0000E-10  8.0000E-10  8.0000E-10   0.000       0.000       0.000       0.000    

                  ET RATE =  5.000000E-10

 USING ET EXTINCTION DEPTH FROM PREVIOUS STRESS PERIOD. CURRENT PERIOD IS:       3

 USING EXTINCTION WATER CONTENT FROM PREVIOUS STRESS PERIOD. CURRENT PERIOD IS:       3

 USING AIR ENTRY PRESSURE FROM PREVIOUS STRESS PERIOD. CURRENT PERIOD IS:       3

 USING ROOT PRESSURE HEAD FROM PREVIOUS STRESS PERIOD. CURRENT PERIOD IS:       3

 USING ROOT ACTIVITY FROM PREVIOUS STRESS PERIOD. CURRENT PERIOD IS:       3

 PROCESSING AG STRESS PERIOD DATA

 READING AG STRESS PERIOD DATA

 READING IRRIGATION SEGMENT

 READING IRRIGATION WELL

 READING SUPPLEMENTAL WELL

 END PROCESSING AG STRESS PERIOD DATA OPTIONS
 
 SOLVING FOR HEAD 
                                                   Max.-Head-Change                         Max.-Flux-Residual
  Residual-Control   Outer-Iter.   Inner-Iter.     Column Row Layer    Maximum-Head-Change  Column Row Layer    Maximum-Flux-Residual          L2-NORM 
          0                 1           2             2    2     1       0.2525011357E-02       2    2    1         0.1319005112E+00      0.4039561040E+00
          0                 2           2             2    2     1      -0.2456150129E-03       2    2    1        -0.1319006855E-01      0.4181694327E-01
          0                 3           1             2    2     1       0.1672546936E-04       2    2    1         0.9233050379E-03      0.2906724711E-02

    ------------------------------------------------
       NWT REQUIRED            3 OUTER ITERATIONS 
       AND A TOTAL OF          5 INNER ITERATIONS.
    ------------------------------------------------

 NO OUTPUT CONTROL FOR STRESS PERIOD    3   TIME STEP    1
 
 SOLVING FOR HEAD 
                                                   Max.-Head-Change                         Max.-Flux-Residual
  Residual-Control   Outer-Iter.   Inner-Iter.     Column Row Layer    Maximum-Head-Change  Column Row Layer    Maximum-Flux-Residual          L2-NORM 
          0                 1           2             2    2     1       0.3324231131E-02       2    2    1         0.1736614038E+00      0.5146754142E+00
          0                 2           2             2    2     1      -0.3233575028E-03       2    2    1        -0.1736617106E-01      0.5102024440E-01
          0                 3           1             2    2     1       0.2201944266E-04       2    2    1         0.1215632199E-02      0.3530081504E-02

    ------------------------------------------------
       NWT REQUIRED            3 OUTER ITERATIONS 
       AND A TOTAL OF          5 INNER ITERATIONS.
    ------------------------------------------------

 NO OUTPUT CONTROL FOR STRESS PERIOD    3   TIME STEP    2
 
 SOLVING FOR HEAD 
                                                   Max.-Head-Change                         Max.-Flux-Residual
  Residual-Control   Outer-Iter.   Inner-Iter.     Column Row Layer    Maximum-Head-Change  Column Row Layer    Maximum-Flux-Residual          L2-NORM 
          0                 1           2             2    2     1       0.3301480467E-02       2    2    1         0.1724651001E+00      0.4998439178E+00
          0                 2           2             2    2     1      -0.3211444747E-03       2    2    1        -0.1724654009E-01      0.4958929944E-01
          0                 3           1             2    2     1       0.2186874379E-04       2    2    1         0.1207258049E-02      0.3434935461E-02

    ------------------------------------------------
       NWT REQUIRED            3 OUTER ITERATIONS 
       AND A TOTAL OF          5 INNER ITERATIONS.
    ------------------------------------------------

 NO OUTPUT CONTROL FOR STRESS PERIOD    3   TIME STEP    3
 
 SOLVING FOR HEAD 
                                                   Max.-Head-Change                         Max.-Flux-Residual
  Residual-Control   Outer-Iter.   Inner-Iter.     Column Row Layer    Maximum-Head-Change  Column Row Layer    Maximum-Flux-Residual          L2-NORM 
          0                 1           2             2    2     1       0.3279131818E-02       2    2    1         0.1712899373E+00      0.4865714186E+00
          0                 2           2             2    2     1      -0.3189705518E-03       2    2    1        -0.1712902324E-01      0.4830887629E-01
          0                 3           1             2    2     1       0.2172070774E-04       2    2    1         0.1199031861E-02      0.3349499608E-02

    ------------------------------------------------
       NWT REQUIRED            3 OUTER ITERATIONS 
       AND A TOTAL OF          5 INNER ITERATIONS.
    ------------------------------------------------

 NO OUTPUT CONTROL FOR STRESS PERIOD    3   TIME STEP    4
 
 SOLVING FOR HEAD 
                                                   Max.-Head-Change                         Max.-Flux-Residual
  Residual-Control   Outer-Iter.   Inner-Iter.     Column Row Layer    Maximum-Head-Change  Column Row Layer    Maximum-Flux-Residual          L2-NORM 
          0                 1           2             2    2     1       0.3257010121E-02       2    2    1         0.1701267478E+00      0.4746967975E+00
          0                 2           2             2    2     1      -0.3168187054E-03       2    2    1        -0.1701270371E-01      0.4716328635E-01
          0                 3           1             2    2     1       0.2157417503E-04       2    2    1         0.1190889507E-02      0.3270890237E-02

    ------------------------------------------------
       NWT REQUIRED            3 OUTER ITERATIONS 
       AND A TOTAL OF          5 INNER ITERATIONS.
    ------------------------------------------------

 NO OUTPUT CONTROL FOR STRESS PERIOD    3   TIME STEP    5
 
 SOLVING FOR HEAD 
                                                   Max.-Head-Change                         Max.-Flux-Residual
  Residual-Control   Outer-Iter.   Inner-Iter.     Column Row Layer    Maximum-Head-Change  Column Row Layer    Maximum-Flux-Residual          L2-NORM 
          0                 1           2             2    2     1       0.3235280851E-02       2    2    1         0.1689841965E+00      0.4640265425E+00
          0                 2           2             2    2     1      -0.3147050320E-03       2    2    1        -0.1689844808E-01      0.4613312208E-01
          0                 3           1             2    2     1       0.2143024171E-04       2    2    1         0.1182891598E-02      0.3204696499E-02

    ------------------------------------------------
       NWT REQUIRED            3 OUTER ITERATIONS 
       AND A TOTAL OF          5 INNER ITERATIONS.
    ------------------------------------------------

 NO OUTPUT CONTROL FOR STRESS PERIOD    3   TIME STEP    6
 
 SOLVING FOR HEAD 
                                                   Max.-Head-Change                         Max.-Flux-Residual
  Residual-Control   Outer-Iter.   Inner-Iter.     Column Row Layer    Maximum-Head-Change  Column Row Layer    Maximum-Flux-Residual          L2-NORM 
          0                 1           2             2    2     1       0.3213768742E-02       2    2    1         0.1678531209E+00      0.4544395675E+00
          0                 2           2             2    2     1      -0.3126124822E-03       2    2    1        -0.1678533996E-01      0.4520717740E-01
          0                 3           1             2    2     1       0.2128774736E-04       2    2    1         0.1174974052E-02      0.3142849220E-02

    ------------------------------------------------
       NWT REQUIRED            3 OUTER ITERATIONS 
       AND A TOTAL OF          5 INNER ITERATIONS.
    ------------------------------------------------

 NO OUTPUT CONTROL FOR STRESS PERIOD    3   TIME STEP    7
 
 SOLVING FOR HEAD 
                                                   Max.-Head-Change                         Max.-Flux-Residual
  Residual-Control   Outer-Iter.   Inner-Iter.     Column Row Layer    Maximum-Head-Change  Column Row Layer    Maximum-Flux-Residual          L2-NORM 
          0                 1           2             2    2     1       0.3192554582E-02       2    2    1         0.1667377406E+00      0.4457937575E+00
          0                 2           2             2    2     1      -0.3105489156E-03       2    2    1        -0.1667380143E-01      0.4437312582E-01
          0                 3           1             2    2     1       0.2114722592E-04       2    2    1         0.1167166361E-02      0.3087989836E-02

    ------------------------------------------------
       NWT REQUIRED            3 OUTER ITERATIONS 
       AND A TOTAL OF          5 INNER ITERATIONS.
    ------------------------------------------------

 NO OUTPUT CONTROL FOR STRESS PERIOD    3   TIME STEP    8
 
 SOLVING FOR HEAD 
                                                   Max.-Head-Change                         Max.-Flux-Residual
  Residual-Control   Outer-Iter.   Inner-Iter.     Column Row Layer    Maximum-Head-Change  Column Row Layer    Maximum-Flux-Residual          L2-NORM 
          0                 1           2             2    2     1       0.3171548839E-02       2    2    1         0.1656333726E+00      0.4379820131E+00
          0                 2           2             2    2     1      -0.3085056218E-03       2    2    1        -0.1656336413E-01      0.4361531313E-01
          0                 3           1             2    2     1       0.2100808546E-04       2    2    1         0.1159435746E-02      0.3036168713E-02

    ------------------------------------------------
       NWT REQUIRED            3 OUTER ITERATIONS 
       AND A TOTAL OF          5 INNER ITERATIONS.
    ------------------------------------------------

 NO OUTPUT CONTROL FOR STRESS PERIOD    3   TIME STEP    9
 
 SOLVING FOR HEAD 
                                                   Max.-Head-Change                         Max.-Flux-Residual
  Residual-Control   Outer-Iter.   Inner-Iter.     Column Row Layer    Maximum-Head-Change  Column Row Layer    Maximum-Flux-Residual          L2-NORM 
          0                 1           2             2    2     1       0.3150918025E-02       2    2    1         0.1645486827E+00      0.4309014473E+00
          0                 2           2             2    2     1      -0.3064987986E-03       2    2    1        -0.1645489464E-01      0.4292970047E-01
          0                 3           1             2    2     1       0.2087142819E-04       2    2    1         0.1151842872E-02      0.2990345713E-02

    ------------------------------------------------
       NWT REQUIRED            3 OUTER ITERATIONS 
       AND A TOTAL OF          5 INNER ITERATIONS.
    ------------------------------------------------

 NO OUTPUT CONTROL FOR STRESS PERIOD    3   TIME STEP   10
 
 SOLVING FOR HEAD 
                                                   Max.-Head-Change                         Max.-Flux-Residual
  Residual-Control   Outer-Iter.   Inner-Iter.     Column Row Layer    Maximum-Head-Change  Column Row Layer    Maximum-Flux-Residual          L2-NORM 
          0                 1           2             2    2     1       0.3130486817E-02       2    2    1         0.1634745604E+00      0.4244596632E+00
          0                 2           2             2    2     1      -0.3045113916E-03       2    2    1        -0.1634748192E-01      0.4230497152E-01
          0                 3           1             2    2     1       0.2073609344E-04       2    2    1         0.1144323989E-02      0.2948688901E-02

    ------------------------------------------------
       NWT REQUIRED            3 OUTER ITERATIONS 
       AND A TOTAL OF          5 INNER ITERATIONS.
    ------------------------------------------------

 NO OUTPUT CONTROL FOR STRESS PERIOD    3   TIME STEP   11
 
 SOLVING FOR HEAD 
                                                   Max.-Head-Change                         Max.-Flux-Residual
  Residual-Control   Outer-Iter.   Inner-Iter.     Column Row Layer    Maximum-Head-Change  Column Row Layer    Maximum-Flux-Residual          L2-NORM 
          0                 1           2             2    2     1       0.3110421577E-02       2    2    1         0.1624196598E+00      0.4185889141E+00
          0                 2           2             2    2     1      -0.3025595840E-03       2    2    1        -0.1624199138E-01      0.4173522698E-01
          0                 3           1             2    2     1       0.2060318246E-04       2    2    1         0.1136939658E-02      0.2910188975E-02

    ------------------------------------------------
       NWT REQUIRED            3 OUTER ITERATIONS 
       AND A TOTAL OF          5 INNER ITERATIONS.
    ------------------------------------------------

 NO OUTPUT CONTROL FOR STRESS PERIOD    3   TIME STEP   12
 
 SOLVING FOR HEAD 
                                                   Max.-Head-Change                         Max.-Flux-Residual
  Residual-Control   Outer-Iter.   Inner-Iter.     Column Row Layer    Maximum-Head-Change  Column Row Layer    Maximum-Flux-Residual          L2-NORM 
          0                 1           2             2    2     1       0.3090547437E-02       2    2    1         0.1613748618E+00      0.4132170528E+00
          0                 2           2             2    2     1      -0.3006263653E-03       2    2    1        -0.1613751113E-01      0.4121296719E-01
          0                 3           1             2    2     1       0.2047153721E-04       2    2    1         0.1129626030E-02      0.2874981966E-02

    ------------------------------------------------
       NWT REQUIRED            3 OUTER ITERATIONS 
       AND A TOTAL OF          5 INNER ITERATIONS.
    ------------------------------------------------

 NO OUTPUT CONTROL FOR STRESS PERIOD    3   TIME STEP   13
 
 SOLVING FOR HEAD 
                                                   Max.-Head-Change                         Max.-Flux-Residual
  Residual-Control   Outer-Iter.   Inner-Iter.     Column Row Layer    Maximum-Head-Change  Column Row Layer    Maximum-Flux-Residual          L2-NORM 
          0                 1           2             2    2     1       0.3070945672E-02       2    2    1         0.1603444083E+00      0.4082878642E+00
          0                 2           2             2    2     1      -0.2987196410E-03       2    2    1        -0.1603446533E-01      0.4073316193E-01
          0                 3           1             2    2     1       0.2034169636E-04       2    2    1         0.1122412824E-02      0.2842122409E-02

    ------------------------------------------------
       NWT REQUIRED            3 OUTER ITERATIONS 
       AND A TOTAL OF          5 INNER ITERATIONS.
    ------------------------------------------------

 NO OUTPUT CONTROL FOR STRESS PERIOD    3   TIME STEP   14
 
 SOLVING FOR HEAD 
                                                   Max.-Head-Change                         Max.-Flux-Residual
  Residual-Control   Outer-Iter.   Inner-Iter.     Column Row Layer    Maximum-Head-Change  Column Row Layer    Maximum-Flux-Residual          L2-NORM 
          0                 1           2             2    2     1       0.3051611998E-02       2    2    1         0.1593280771E+00      0.4037432855E+00
          0                 2           2             2    2     1      -0.2968389952E-03       2    2    1        -0.1593283178E-01      0.4029055436E-01
          0                 3           1             2    2     1       0.2021363175E-04       2    2    1         0.1115298474E-02      0.2812665501E-02

    ------------------------------------------------
       NWT REQUIRED            3 OUTER ITERATIONS 
       AND A TOTAL OF          5 INNER ITERATIONS.
    ------------------------------------------------

 NO OUTPUT CONTROL FOR STRESS PERIOD    3   TIME STEP   15
 
 SOLVING FOR HEAD 
                                                   Max.-Head-Change                         Max.-Flux-Residual
  Residual-Control   Outer-Iter.   Inner-Iter.     Column Row Layer    Maximum-Head-Change  Column Row Layer    Maximum-Flux-Residual          L2-NORM 
          0                 1           2             2    2     1       0.3032542649E-02       2    2    1         0.1583256463E+00      0.3995411777E+00
          0                 2           2             2    2     1      -0.2949840610E-03       2    2    1        -0.1583258826E-01      0.3988016463E-01
          0                 3           1             2    2     1       0.2008731757E-04       2    2    1         0.1108281427E-02      0.2784963619E-02

    ------------------------------------------------
       NWT REQUIRED            3 OUTER ITERATIONS 
       AND A TOTAL OF          5 INNER ITERATIONS.
    ------------------------------------------------

 NO OUTPUT CONTROL FOR STRESS PERIOD    3   TIME STEP   16
 
 SOLVING FOR HEAD 
                                                   Max.-Head-Change                         Max.-Flux-Residual
  Residual-Control   Outer-Iter.   Inner-Iter.     Column Row Layer    Maximum-Head-Change  Column Row Layer    Maximum-Flux-Residual          L2-NORM 
          0                 1           2             2    2     1       0.3013648210E-02       2    2    1         0.1573324837E+00      0.3956471269E+00
          0                 2           2             2    2     1      -0.2931461416E-03       2    2    1        -0.1573327161E-01      0.3949936634E-01
          0                 3           1             2    2     1       0.1996216214E-04       2    2    1         0.1101329276E-02      0.2758858441E-02

    ------------------------------------------------
       NWT REQUIRED            3 OUTER ITERATIONS 
       AND A TOTAL OF          5 INNER ITERATIONS.
    ------------------------------------------------

 NO OUTPUT CONTROL FOR STRESS PERIOD    3   TIME STEP   17
 
 SOLVING FOR HEAD 
                                                   Max.-Head-Change                         Max.-Flux-Residual
  Residual-Control   Outer-Iter.   Inner-Iter.     Column Row Layer    Maximum-Head-Change  Column Row Layer    Maximum-Flux-Residual          L2-NORM 
          0                 1           2             2    2     1       0.2995086685E-02       2    2    1         0.1563567839E+00      0.3920195151E+00
          0                 2           2             2    2     1      -0.2913406047E-03       2    2    1        -0.1563570120E-01      0.3914490014E-01
          0                 3           1             2    2     1       0.1983921179E-04       2    2    1         0.1094499337E-02      0.2735070227E-02

    ------------------------------------------------
       NWT REQUIRED            3 OUTER ITERATIONS 
       AND A TOTAL OF          5 INNER ITERATIONS.
    ------------------------------------------------

 NO OUTPUT CONTROL FOR STRESS PERIOD    3   TIME STEP   18
 
 SOLVING FOR HEAD 
                                                   Max.-Head-Change                         Max.-Flux-Residual
  Residual-Control   Outer-Iter.   Inner-Iter.     Column Row Layer    Maximum-Head-Change  Column Row Layer    Maximum-Flux-Residual          L2-NORM 
          0                 1           2             2    2     1       0.2976701687E-02       2    2    1         0.1553904308E+00      0.3886479529E+00
          0                 2           2             2    2     1      -0.2895522397E-03       2    2    1        -0.1553906548E-01      0.3881409150E-01
          0                 3           1             2    2     1       0.1971743109E-04       2    2    1         0.1087734852E-02      0.2712477527E-02

    ------------------------------------------------
       NWT REQUIRED            3 OUTER ITERATIONS 
       AND A TOTAL OF          5 INNER ITERATIONS.
    ------------------------------------------------

 NO OUTPUT CONTROL FOR STRESS PERIOD    3   TIME STEP   19
 
 SOLVING FOR HEAD 
                                                   Max.-Head-Change                         Max.-Flux-Residual
  Residual-Control   Outer-Iter.   Inner-Iter.     Column Row Layer    Maximum-Head-Change  Column Row Layer    Maximum-Flux-Residual          L2-NORM 
          0                 1           2             2    2     1       0.2958565986E-02       2    2    1         0.1544371877E+00      0.3854777616E+00
          0                 2           2             2    2     1      -0.2877881247E-03       2    2    1        -0.1544374080E-01      0.3850192949E-01
          0                 3           1             2    2     1       0.1959730141E-04       2    2    1         0.1081062114E-02      0.2689673866E-02

    ------------------------------------------------
       NWT REQUIRED            3 OUTER ITERATIONS 
       AND A TOTAL OF          5 INNER ITERATIONS.
    ------------------------------------------------

 NO OUTPUT CONTROL FOR STRESS PERIOD    3   TIME STEP   20
 
 SOLVING FOR HEAD 
                                                   Max.-Head-Change                         Max.-Flux-Residual
  Residual-Control   Outer-Iter.   Inner-Iter.     Column Row Layer    Maximum-Head-Change  Column Row Layer    Maximum-Flux-Residual          L2-NORM 
          0                 1           2             2    2     1       0.2940675688E-02       2    2    1         0.1534968704E+00      0.3824967673E+00
          0                 2           2             2    2     1      -0.2860478810E-03       2    2    1        -0.1534970870E-01      0.3821053852E-01
          0                 3           1             2    2     1       0.1947879698E-04       2    2    1         0.1074479866E-02      0.2671363531E-02

    ------------------------------------------------
       NWT REQUIRED            3 OUTER ITERATIONS 
       AND A TOTAL OF          5 INNER ITERATIONS.
    ------------------------------------------------

 NO OUTPUT CONTROL FOR STRESS PERIOD    3   TIME STEP   21
 
 SOLVING FOR HEAD 
                                                   Max.-Head-Change                         Max.-Flux-Residual
  Residual-Control   Outer-Iter.   Inner-Iter.     Column Row Layer    Maximum-Head-Change  Column Row Layer    Maximum-Flux-Residual          L2-NORM 
          0                 1           2             2    2     1       0.2923027038E-02       2    2    1         0.1525692770E+00      0.3797026233E+00
          0                 2           2             2    2     1      -0.2843311427E-03       2    2    1        -0.1525694898E-01      0.3793538048E-01
          0                 3           1             2    2     1       0.1936189363E-04       2    2    1         0.1067986683E-02      0.2652299631E-02

    ------------------------------------------------
       NWT REQUIRED            3 OUTER ITERATIONS 
       AND A TOTAL OF          5 INNER ITERATIONS.
    ------------------------------------------------

 NO OUTPUT CONTROL FOR STRESS PERIOD    3   TIME STEP   22
 
 SOLVING FOR HEAD 
                                                   Max.-Head-Change                         Max.-Flux-Residual
  Residual-Control   Outer-Iter.   Inner-Iter.     Column Row Layer    Maximum-Head-Change  Column Row Layer    Maximum-Flux-Residual          L2-NORM 
          0                 1           2             2    2     1       0.2905615958E-02       2    2    1         0.1516542128E+00      0.3770550096E+00
          0                 2           2             2    2     1      -0.2826375138E-03       2    2    1        -0.1516544218E-01      0.3767414756E-01
          0                 3           1             2    2     1       0.1924656393E-04       2    2    1         0.1061581209E-02      0.2634458299E-02

    ------------------------------------------------
       NWT REQUIRED            3 OUTER ITERATIONS 
       AND A TOTAL OF          5 INNER ITERATIONS.
    ------------------------------------------------

 NO OUTPUT CONTROL FOR STRESS PERIOD    3   TIME STEP   23
 
 SOLVING FOR HEAD 
                                                   Max.-Head-Change                         Max.-Flux-Residual
  Residual-Control   Outer-Iter.   Inner-Iter.     Column Row Layer    Maximum-Head-Change  Column Row Layer    Maximum-Flux-Residual          L2-NORM 
          0                 1           2             2    2     1       0.2888354939E-02       2    2    1         0.1507470290E+00      0.3745454168E+00
          0                 2           2             2    2     1      -0.2809584821E-03       2    2    1        -0.1507472346E-01      0.3742728485E-01
          0                 3           1             2    2     1       0.1913222826E-04       2    2    1         0.1055230902E-02      0.2617520590E-02

    ------------------------------------------------
       NWT REQUIRED            3 OUTER ITERATIONS 
       AND A TOTAL OF          5 INNER ITERATIONS.
    ------------------------------------------------

 NO OUTPUT CONTROL FOR STRESS PERIOD    3   TIME STEP   24
 
 SOLVING FOR HEAD 
                                                   Max.-Head-Change                         Max.-Flux-Residual
  Residual-Control   Outer-Iter.   Inner-Iter.     Column Row Layer    Maximum-Head-Change  Column Row Layer    Maximum-Flux-Residual          L2-NORM 
          0                 1           2             2    2     1       0.2871410514E-02       2    2    1         0.1498565005E+00      0.3721681515E+00
          0                 2           2             2    2     1      -0.2793102462E-03       2    2    1        -0.1498567025E-01      0.3719261828E-01
          0                 3           1             2    2     1       0.1901998904E-04       2    2    1         0.1048997171E-02      0.2601223372E-02

    ------------------------------------------------
       NWT REQUIRED            3 OUTER ITERATIONS 
       AND A TOTAL OF          5 INNER ITERATIONS.
    ------------------------------------------------

 NO OUTPUT CONTROL FOR STRESS PERIOD    3   TIME STEP   25
 
 SOLVING FOR HEAD 
                                                   Max.-Head-Change                         Max.-Flux-Residual
  Residual-Control   Outer-Iter.   Inner-Iter.     Column Row Layer    Maximum-Head-Change  Column Row Layer    Maximum-Flux-Residual          L2-NORM 
          0                 1           2             2    2     1       0.2854608264E-02       2    2    1         0.1489735121E+00      0.3699009105E+00
          0                 2           2             2    2     1      -0.2776758406E-03       2    2    1        -0.1489737109E-01      0.3696829214E-01
          0                 3           1             2    2     1       0.1890869248E-04       2    2    1         0.1042816234E-02      0.2585727980E-02

    ------------------------------------------------
       NWT REQUIRED            3 OUTER ITERATIONS 
       AND A TOTAL OF          5 INNER ITERATIONS.
    ------------------------------------------------

 NO OUTPUT CONTROL FOR STRESS PERIOD    3   TIME STEP   26
 
 SOLVING FOR HEAD 
                                                   Max.-Head-Change                         Max.-Flux-Residual
  Residual-Control   Outer-Iter.   Inner-Iter.     Column Row Layer    Maximum-Head-Change  Column Row Layer    Maximum-Flux-Residual          L2-NORM 
          0                 1           2             2    2     1       0.2838115570E-02       2    2    1         0.1481067704E+00      0.3677400383E+00
          0                 2           2             2    2     1      -0.2760715463E-03       2    2    1        -0.1481069658E-01      0.3675480245E-01
          0                 3           1             2    2     1       0.1879944623E-04       2    2    1         0.1036749030E-02      0.2571036846E-02

    ------------------------------------------------
       NWT REQUIRED            3 OUTER ITERATIONS 
       AND A TOTAL OF          5 INNER ITERATIONS.
    ------------------------------------------------

 NO OUTPUT CONTROL FOR STRESS PERIOD    3   TIME STEP   27
 
 SOLVING FOR HEAD 
                                                   Max.-Head-Change                         Max.-Flux-Residual
  Residual-Control   Outer-Iter.   Inner-Iter.     Column Row Layer    Maximum-Head-Change  Column Row Layer    Maximum-Flux-Residual          L2-NORM 
          0                 1           2             2    2     1       0.2821758846E-02       2    2    1         0.1472472037E+00      0.3656790175E+00
          0                 2           2             2    2     1      -0.2744804784E-03       2    2    1        -0.1472473959E-01      0.3655086991E-01
          0                 3           1             2    2     1       0.1869110052E-04       2    2    1         0.1030732055E-02      0.2557093291E-02

    ------------------------------------------------
       NWT REQUIRED            3 OUTER ITERATIONS 
       AND A TOTAL OF          5 INNER ITERATIONS.
    ------------------------------------------------

 NO OUTPUT CONTROL FOR STRESS PERIOD    3   TIME STEP   28
 
 SOLVING FOR HEAD 
                                                   Max.-Head-Change                         Max.-Flux-Residual
  Residual-Control   Outer-Iter.   Inner-Iter.     Column Row Layer    Maximum-Head-Change  Column Row Layer    Maximum-Flux-Residual          L2-NORM 
          0                 1           2             2    2     1       0.2805619931E-02       2    2    1         0.1463991244E+00      0.3637082943E+00
          0                 2           2             2    2     1      -0.2729105967E-03       2    2    1        -0.1463993132E-01      0.3635570891E-01
          0                 3           1             2    2     1       0.1858419710E-04       2    2    1         0.1024795464E-02      0.2543539986E-02

    ------------------------------------------------
       NWT REQUIRED            3 OUTER ITERATIONS 
       AND A TOTAL OF          5 INNER ITERATIONS.
    ------------------------------------------------

 NO OUTPUT CONTROL FOR STRESS PERIOD    3   TIME STEP   29
 
 SOLVING FOR HEAD 
                                                   Max.-Head-Change                         Max.-Flux-Residual
  Residual-Control   Outer-Iter.   Inner-Iter.     Column Row Layer    Maximum-Head-Change  Column Row Layer    Maximum-Flux-Residual          L2-NORM 
          0                 1           2             4   13     1       0.4709136809E-02       4   13    1         0.2696369064E+00      0.6974167750E+00
          0                 2           2             2    2     1      -0.4535412924E-03       4   13    1        -0.2668102261E-01      0.6881940714E-01
          0                 3           1             2    2     1       0.3088447269E-04       4   13    1         0.1840059044E-02      0.4731509499E-02

    ------------------------------------------------
       NWT REQUIRED            3 OUTER ITERATIONS 
       AND A TOTAL OF          5 INNER ITERATIONS.
    ------------------------------------------------

 NO OUTPUT CONTROL FOR STRESS PERIOD    3   TIME STEP   30



 STREAM LISTING     PERIOD      3   STEP       30

 LAYER ROW COL. STREAM  RCH.  FLOW INTO     FLOW TO   FLOW OUT OF   OVRLND.     DIRECT     STREAM       STREAM     STREAM     STREAM   STREAMBED  STREAMBED
                SEG.NO.  NO.  STRM. RCH.    AQUIFER    STRM. RCH.    RUNOFF     PRECIP       ET          HEAD       DEPTH      WIDTH   CONDCTNC.   GRADIENT

   1    1    1     1     1    2.7188E+01  2.5503E-01   2.6933E+01  0.000E+00  0.000E+00  0.000E+00  1.09426E+03  1.210E+00  1.346E+01  6.058E-02  1.403E+00
   1    2    2     1     2    2.6933E+01  3.9447E-01   2.6539E+01  0.000E+00  0.000E+00  0.000E+00  1.08926E+03  1.205E+00  1.340E+01  9.380E-02  1.402E+00
   1    3    3     1     3    2.6539E+01  3.3594E-01   2.6203E+01  0.000E+00  0.000E+00  0.000E+00  1.08362E+03  1.200E+00  1.333E+01  7.998E-02  1.400E+00
   1    3    4     1     4    2.6203E+01  3.0895E-01   2.5894E+01  0.000E+00  0.000E+00  0.000E+00  1.07860E+03  1.196E+00  1.327E+01  7.364E-02  1.399E+00
   1    4    5     2     1    2.3894E+01  3.2529E-01   2.3568E+01  0.000E+00  0.000E+00  0.000E+00  1.07310E+03  1.170E+00  1.200E+01  7.800E-02  1.390E+00
   1    5    6     2     2    2.3568E+01  2.4971E-01   2.3319E+01  0.000E+00  0.000E+00  0.000E+00  1.06767E+03  1.162E+00  1.200E+01  6.000E-02  1.387E+00
   1    6    6     2     3    2.3319E+01  2.4927E-01   2.3069E+01  0.000E+00  0.000E+00  0.000E+00  1.06295E+03  1.154E+00  1.200E+01  6.000E-02  1.385E+00
   1    7    6     2     4    2.3069E+01  2.4882E-01   2.2821E+01  0.000E+00  0.000E+00  0.000E+00  1.05822E+03  1.147E+00  1.200E+01  6.000E-02  1.382E+00
   1    8    6     2     5    2.2821E+01  2.4837E-01   2.2572E+01  0.000E+00  0.000E+00  0.000E+00  1.05350E+03  1.140E+00  1.200E+01  6.000E-02  1.380E+00
   1    3    5     3     1    2.0000E+00  2.8252E-01   1.7175E+00  0.000E+00  0.000E+00  0.000E+00  1.07555E+03  1.909E+00  9.636E+00  7.227E-02  1.955E+00
   1    3    6     3     2    1.7175E+00  2.4905E-01   1.4684E+00  0.000E+00  0.000E+00  0.000E+00  1.07264E+03  1.727E+00  8.909E+00  6.682E-02  1.864E+00
   1    3    7     3     3    1.4684E+00  1.9718E-01   1.2712E+00  0.000E+00  0.000E+00  0.000E+00  1.06987E+03  1.555E+00  8.218E+00  5.547E-02  1.777E+00
   1    4    8     3     4    1.2712E+00  2.2567E-01   1.0456E+00  0.000E+00  0.000E+00  0.000E+00  1.06682E+03  1.364E+00  7.455E+00  6.709E-02  1.682E+00
   1    5    8     3     5    1.0456E+00  1.5790E-01   8.8768E-01  0.000E+00  0.000E+00  0.000E+00  1.06362E+03  1.164E+00  6.655E+00  4.991E-02  1.582E+00
   1    6    8     3     6    8.8768E-01  5.5980E-02   8.3170E-01  0.000E+00  0.000E+00  0.000E+00  1.06158E+03  1.036E+00  6.145E+00  1.844E-02  1.518E+00
   1    5   10     4     1    1.0000E+01  9.0919E-02   9.9091E+00  0.000E+00  0.000E+00  0.000E+00  1.07836E+03  6.368E-01  1.000E+01  2.500E-02  1.212E+00
   1    5    9     4     2    9.9091E+00  1.8158E-01   9.7275E+00  0.000E+00  0.000E+00  0.000E+00  1.07154E+03  6.315E-01  1.000E+01  5.000E-02  1.211E+00
   1    6    8     4     3    9.7275E+00  1.2689E-01   9.6006E+00  0.000E+00  0.000E+00  0.000E+00  1.06381E+03  6.256E-01  1.000E+01  3.500E-02  1.209E+00
   1    6    8     5     1    1.0432E+01  2.2686E-01   1.0205E+01  0.000E+00  0.000E+00  0.000E+00  1.05868E+03  6.790E-01  1.542E+01  6.166E-02  1.226E+00
   1    7    7     5     2    1.0205E+01  2.7894E-01   9.9265E+00  0.000E+00  0.000E+00  0.000E+00  1.05417E+03  6.732E-01  1.519E+01  7.594E-02  1.224E+00
   1    8    7     5     3    9.9265E+00  1.9221E-01   9.7343E+00  0.000E+00  0.000E+00  0.000E+00  1.04992E+03  6.676E-01  1.497E+01  5.241E-02  1.223E+00
   1    8    6     5     4    9.7343E+00  1.3577E-01   9.5985E+00  0.000E+00  0.000E+00  0.000E+00  1.04691E+03  6.637E-01  1.482E+01  3.706E-02  1.221E+00
   1    9    6     6     1    3.2171E+01  2.6502E-01   3.1906E+01  0.000E+00  0.000E+00  0.000E+00  1.04414E+03  1.417E+00  1.200E+01  6.000E-02  1.472E+00
   1   10    7     6     2    3.1906E+01  2.6460E-01   3.1641E+01  0.000E+00  0.000E+00  0.000E+00  1.03959E+03  1.410E+00  1.200E+01  6.000E-02  1.470E+00
   1   11    7     6     3    3.1641E+01  2.6418E-01   3.1377E+01  0.000E+00  0.000E+00  0.000E+00  1.03504E+03  1.403E+00  1.200E+01  6.000E-02  1.468E+00
   1   12    7     6     4    3.1377E+01  2.6375E-01   3.1113E+01  0.000E+00  0.000E+00  0.000E+00  1.03049E+03  1.396E+00  1.200E+01  6.000E-02  1.465E+00
   1   13    7     6     5    3.1113E+01  1.0995E-02   3.1102E+01  0.000E+00  0.000E+00  0.000E+00  1.02730E+03  1.392E+00  1.200E+01  2.400E-02  1.527E-01
   1   14    9     7     1    1.5000E+02  1.3665E+00   1.4863E+02  0.000E+00  0.000E+00  0.000E+00  1.03987E+03  2.288E+00  5.529E+01  5.593E-01  8.144E-01
   1   13    8     7     2    1.4863E+02  1.9191E+00   1.4671E+02  0.000E+00  0.000E+00  0.000E+00  1.03478E+03  2.279E+00  5.526E+01  6.148E-01  1.041E+00
   1   13    7     7     3    1.4671E+02  1.5891E+00   1.4513E+02  0.000E+00  0.000E+00  0.000E+00  1.02969E+03  2.270E+00  5.521E+01  5.584E-01  9.486E-01
   1   13    6     8     1    1.7623E+02  1.0561E+00   1.7517E+02  0.000E+00  0.000E+00  0.000E+00  1.02486E+03  2.989E+00  4.334E+01  4.416E-01  7.971E-01
   1   13    5     8     2    1.7517E+02  2.7870E-01   1.7489E+02  0.000E+00  0.000E+00  0.000E+00  1.01861E+03  2.985E+00  4.328E+01  4.410E-01  2.106E-01
   1   13    4     8     3    1.7489E+02 -1.9966E+00   1.7689E+02  0.000E+00  0.000E+00  0.000E+00  1.01237E+03  2.990E+00  4.336E+01  4.418E+00 -1.506E-01
   1   13    3     8     4    1.7689E+02 -3.3281E+00   1.8022E+02  0.000E+00  0.000E+00  0.000E+00  1.00613E+03  3.007E+00  4.360E+01  4.443E+00 -2.497E-01
   1   13    2     8     5    1.8022E+02 -2.3039E+00   1.8252E+02  0.000E+00  0.000E+00  0.000E+00  9.99900E+02  3.025E+00  4.386E+01  4.469E+00 -1.718E-01
   1   13    1     8     6    1.8252E+02 -1.8174E+00   1.8434E+02  0.000E+00  0.000E+00  0.000E+00  9.94913E+02  3.038E+00  4.405E+01  2.693E+00 -2.250E-01
   1    8    6     9     1    0.0000E+00  0.0000E+00   0.0000E+00  0.000E+00  0.000E+00  0.000E+00  1.07875E+03  0.000E+00  4.000E+00  0.000E+00  1.000E+00
   1    8    5     9     2    0.0000E+00  0.0000E+00   0.0000E+00  0.000E+00  0.000E+00  0.000E+00  1.07825E+03  0.000E+00  4.000E+00  0.000E+00  1.000E+00





UNSATURATED ZONE PACKAGE VOLUMETRIC BUDGET FOR  TIME STEP    30 STRESS PERIOD    3
  ------------------------------------------------------------------------------



     CUMULATIVE VOLUMES      L**3       RATES FOR THIS TIME STEP      L**3/T
     ------------------                 ------------------------

           IN:                                      IN:
           ---                                      ---
        INFILTRATION =     4531073.7455          INFILTRATION =           0.8475

          OUT:                                     OUT:
          ----                                     ----
              UZF ET =     3944985.5897                UZF ET =           0.7500
        UZF RECHARGE =       73224.0000          UZF RECHARGE =       0.0000E+00

            IN - OUT =      512864.1558              IN - OUT =       9.7500E-02

          STORAGE:                                 STORAGE:
          --------                                 --------
      STORAGE CHANGE =      512864.1946        STORAGE CHANGE =       9.7500E-02

 PERCENT DISCREPANCY IS DIFFERENCE BETWEEN IN-OUT MINUS CHANGE IN STORAGE
 DIVIDED BY THE AVERAGE OF IN AND OUT TIMES 100

 PERCENT DISCREPANCY =          -0.00     PERCENT DISCREPANCY =           0.00






1
  VOLUMETRIC BUDGET FOR AGRICULTURAL FIELDS AT  END OF TIME STEP   30, STRESS PERIOD   3
  ------------------------------------------------------------------------------

     CUMULATIVE VOLUMES      L**3       RATES FOR THIS TIME STEP      L**3/T
     ------------------                 ------------------------

           IN:                                      IN:
           ---                                      ---
               AG WELLS  =           0.0000                 AG WELLS  =           0.0000
      DIVERSION SEGMENTS =           0.0000        DIVERSION SEGMENTS =           0.0000
           GW IRRIGATION =           0.0000             GW IRRIGATION =           0.0000
           SW IRRIGATION =           0.0000             SW IRRIGATION =           0.0000
        SYSTEM LOSSES GW =           0.0000          SYSTEM LOSSES GW =           0.0000
        SYSTEM LOSSES SW =           0.0000          SYSTEM LOSSES SW =           0.0000

                TOTAL IN =           0.0000                  TOTAL IN =           0.0000

          OUT:                                     OUT:
          ----                                     ----
               AG WELLS  =           0.0000                 AG WELLS  =           0.0000
      DIVERSION SEGMENTS =           0.0000        DIVERSION SEGMENTS =           0.0000
           GW IRRIGATION =           0.0000             GW IRRIGATION =           0.0000
           SW IRRIGATION =           0.0000             SW IRRIGATION =           0.0000
        SYSTEM LOSSES GW =           0.0000          SYSTEM LOSSES GW =           0.0000
        SYSTEM LOSSES SW =           0.0000          SYSTEM LOSSES SW =           0.0000

               TOTAL OUT =           0.0000                 TOTAL OUT =           0.0000

                IN - OUT =           0.0000                  IN - OUT =           0.0000

     PERCENT DISCREPANCY =           0.00         PERCENT DISCREPANCY =           0.00



1
  VOLUMETRIC BUDGET FOR ENTIRE MODEL AT END OF TIME STEP   30, STRESS PERIOD   3
  ------------------------------------------------------------------------------

     CUMULATIVE VOLUMES      L**3       RATES FOR THIS TIME STEP      L**3/T
     ------------------                 ------------------------

           IN:                                      IN:
           ---                                      ---
             STORAGE     =     3101464.7500               STORAGE     =           0.4931
       CONSTANT HEAD     =           0.0000         CONSTANT HEAD     =           0.0000
     HEAD DEP BOUNDS     =     1538702.5000       HEAD DEP BOUNDS     =           0.2878
      STREAM LEAKAGE     =    60993756.0000        STREAM LEAKAGE     =          12.2952
        UZF RECHARGE     =       73223.9531          UZF RECHARGE     =           0.0000
               GW ET     =           0.0000                 GW ET     =           0.0000
     SURFACE LEAKAGE     =           0.0000       SURFACE LEAKAGE     =           0.0000
           AG WELLS      =           0.0000             AG WELLS      =           0.0000

                TOTAL IN =    65707148.0000                  TOTAL IN =          13.0762

          OUT:                                     OUT:
          ----                                     ----
             STORAGE     =     9831364.0000               STORAGE     =           3.3427
       CONSTANT HEAD     =           0.0000         CONSTANT HEAD     =           0.0000
     HEAD DEP BOUNDS     =     1536322.6250       HEAD DEP BOUNDS     =           0.2883
      STREAM LEAKAGE     =    54341368.0000        STREAM LEAKAGE     =           9.4460
        UZF RECHARGE     =           0.0000          UZF RECHARGE     =           0.0000
               GW ET     =           0.0000                 GW ET     =           0.0000
     SURFACE LEAKAGE     =           0.0000       SURFACE LEAKAGE     =           0.0000
           AG WELLS      =           0.0000             AG WELLS      =           0.0000

               TOTAL OUT =    65709056.0000                 TOTAL OUT =          13.0770

                IN - OUT =       -1908.0000                  IN - OUT =      -8.0872E-04

     PERCENT DISCREPANCY =          -0.00         PERCENT DISCREPANCY =          -0.01






         TIME SUMMARY AT END OF TIME STEP   30 IN STRESS PERIOD    3
                    SECONDS     MINUTES      HOURS       DAYS        YEARS
                    -----------------------------------------------------------
   TIME STEP LENGTH  87667.      1461.1      24.352      1.0147     2.77799E-03
 STRESS PERIOD TIME 2.63000E+06  43833.      730.56      30.440     8.33397E-02
         TOTAL TIME 5.34640E+06  89107.      1485.1      61.880     0.16942    
1
1
                            STRESS PERIOD NO.    4, LENGTH =   2630000.    
                            -----------------------------------------------

                              NUMBER OF TIME STEPS =    30

                               MULTIPLIER FOR DELT =     1.000

                            INITIAL TIME STEP SIZE =   87666.66    

 REUSING NON-PARAMETER GHB CELLS FROM LAST STRESS PERIOD

      2 GHB CELLS

 REUSING STREAM SEGMENT DATA FROM LAST STRESS PERIOD



            AREAL INFILTRATION RATE
 READING ON UNIT   19 WITH FORMAT: (FREE)              

            1           2           3           4           5           6           7           8           9          10
 ........................................................................................................................
   1   1.0000E-10  2.0000E-10   0.000       0.000       0.000       0.000       0.000       0.000       0.000       0.000    
   2   2.0000E-10  1.0000E-10  2.0000E-10   0.000       0.000      8.0000E-10  8.0000E-10  5.0000E-10   0.000       0.000    
   3    0.000      5.0000E-10  1.0000E-10  1.0000E-10  8.0000E-10  8.0000E-10  5.0000E-10  5.0000E-10   0.000       0.000    
   4   8.0000E-10  5.0000E-10  1.0000E-10  1.0000E-10  1.0000E-10  1.0000E-10  1.0000E-10  1.0000E-10  2.0000E-10   0.000    
   5   8.0000E-10  5.0000E-10  1.0000E-10  1.0000E-10  1.0000E-10  1.0000E-10  1.0000E-10  1.0000E-10  1.0000E-10  1.0000E-10
   6   8.0000E-10  5.0000E-10  5.0000E-10  2.0000E-10  2.0000E-10  1.0000E-10  1.0000E-10  1.0000E-10  1.0000E-10  5.0000E-10
   7   8.0000E-10  5.0000E-10  5.0000E-10  2.0000E-10  2.0000E-10  1.0000E-10  1.0000E-10  2.0000E-10  2.0000E-10   0.000    
   8    0.000      5.0000E-10  5.0000E-10  2.0000E-10  2.0000E-10  1.0000E-10  1.0000E-10  2.0000E-10  5.0000E-10   0.000    
   9    0.000      5.0000E-10  5.0000E-10  2.0000E-10  2.0000E-10  1.0000E-10  1.0000E-10  2.0000E-10  5.0000E-10   0.000    
  10    0.000      5.0000E-10  5.0000E-10  2.0000E-10  2.0000E-10  1.0000E-10  1.0000E-10  2.0000E-10  5.0000E-10  8.0000E-10
  11    0.000      1.0000E-10  1.0000E-10  1.0000E-10  1.0000E-10  1.0000E-10  1.0000E-10  2.0000E-10  5.0000E-10   0.000    
  12   1.0000E-10  1.0000E-10  1.0000E-10  1.0000E-10  1.0000E-10  1.0000E-10  1.0000E-10  1.0000E-10  2.0000E-10   0.000    
  13   1.0000E-10  1.0000E-10  2.0000E-10  2.0000E-10  2.0000E-10  2.0000E-10  2.0000E-10  1.0000E-10  1.0000E-10   0.000    
  14    0.000      2.0000E-10  5.0000E-10  5.0000E-10  5.0000E-10  5.0000E-10  5.0000E-10  2.0000E-10  1.0000E-10   0.000    
  15    0.000       0.000      8.0000E-10  8.0000E-10  8.0000E-10  8.0000E-10   0.000       0.000       0.000       0.000    

                  ET RATE =  5.000000E-10

 USING ET EXTINCTION DEPTH FROM PREVIOUS STRESS PERIOD. CURRENT PERIOD IS:       4

 USING EXTINCTION WATER CONTENT FROM PREVIOUS STRESS PERIOD. CURRENT PERIOD IS:       4

 USING AIR ENTRY PRESSURE FROM PREVIOUS STRESS PERIOD. CURRENT PERIOD IS:       4

 USING ROOT PRESSURE HEAD FROM PREVIOUS STRESS PERIOD. CURRENT PERIOD IS:       4

 USING ROOT ACTIVITY FROM PREVIOUS STRESS PERIOD. CURRENT PERIOD IS:       4

 PROCESSING AG STRESS PERIOD DATA

 READING AG STRESS PERIOD DATA

 READING IRRIGATION SEGMENT

 READING IRRIGATION WELL

 READING SUPPLEMENTAL WELL

 END PROCESSING AG STRESS PERIOD DATA OPTIONS
 
 SOLVING FOR HEAD 
                                                   Max.-Head-Change                         Max.-Flux-Residual
  Residual-Control   Outer-Iter.   Inner-Iter.     Column Row Layer    Maximum-Head-Change  Column Row Layer    Maximum-Flux-Residual          L2-NORM 
          0                 1           2             4   13     1       0.4940254060E-02       4   13    1         0.2828335364E+00      0.7295639810E+00
          0                 2           2             4   13     1      -0.4754262552E-03       4   13    1        -0.2798492593E-01      0.7196015433E-01
          0                 3           1             2    2     1       0.3214211446E-04       4   13    1         0.1930053891E-02      0.4944999565E-02

    ------------------------------------------------
       NWT REQUIRED            3 OUTER ITERATIONS 
       AND A TOTAL OF          5 INNER ITERATIONS.
    ------------------------------------------------

 NO OUTPUT CONTROL FOR STRESS PERIOD    4   TIME STEP    1
 
 SOLVING FOR HEAD 
                                                   Max.-Head-Change                         Max.-Flux-Residual
  Residual-Control   Outer-Iter.   Inner-Iter.     Column Row Layer    Maximum-Head-Change  Column Row Layer    Maximum-Flux-Residual          L2-NORM 
          0                 1           2             2    2     1       0.4822157583E-02       4   13    1         0.2567874525E+00      0.7019739491E+00
          0                 2           2             2    2     1      -0.4690653484E-03       4   13    1        -0.2540507498E-01      0.6931303985E-01
          0                 3           1             2    2     1       0.3194160249E-04       2    2    1         0.1762315083E-02      0.4770801368E-02

    ------------------------------------------------
       NWT REQUIRED            3 OUTER ITERATIONS 
       AND A TOTAL OF          5 INNER ITERATIONS.
    ------------------------------------------------

 NO OUTPUT CONTROL FOR STRESS PERIOD    4   TIME STEP    2
 
 SOLVING FOR HEAD 
                                                   Max.-Head-Change                         Max.-Flux-Residual
  Residual-Control   Outer-Iter.   Inner-Iter.     Column Row Layer    Maximum-Head-Change  Column Row Layer    Maximum-Flux-Residual          L2-NORM 
          0                 1           2             2    2     1       0.4792218275E-02       2    2    1         0.2501847211E+00      0.6774939908E+00
          0                 2           2             2    2     1      -0.4661530540E-03       2    2    1        -0.2501853140E-01      0.6696501458E-01
          0                 3           1             2    2     1       0.3174328639E-04       2    2    1         0.1751297400E-02      0.4614591764E-02

    ------------------------------------------------
       NWT REQUIRED            3 OUTER ITERATIONS 
       AND A TOTAL OF          5 INNER ITERATIONS.
    ------------------------------------------------

 NO OUTPUT CONTROL FOR STRESS PERIOD    4   TIME STEP    3
 
 SOLVING FOR HEAD 
                                                   Max.-Head-Change                         Max.-Flux-Residual
  Residual-Control   Outer-Iter.   Inner-Iter.     Column Row Layer    Maximum-Head-Change  Column Row Layer    Maximum-Flux-Residual          L2-NORM 
          0                 1           2             2    2     1       0.4762604938E-02       2    2    1         0.2486279630E+00      0.6557715732E+00
          0                 2           2             2    2     1      -0.4632724675E-03       2    2    1        -0.2486285453E-01      0.6488331357E-01
          0                 3           1             2    2     1       0.3154712850E-04       2    2    1         0.1740399999E-02      0.4477532787E-02

    ------------------------------------------------
       NWT REQUIRED            3 OUTER ITERATIONS 
       AND A TOTAL OF          5 INNER ITERATIONS.
    ------------------------------------------------

 NO OUTPUT CONTROL FOR STRESS PERIOD    4   TIME STEP    4
 
 SOLVING FOR HEAD 
                                                   Max.-Head-Change                         Max.-Flux-Residual
  Residual-Control   Outer-Iter.   Inner-Iter.     Column Row Layer    Maximum-Head-Change  Column Row Layer    Maximum-Flux-Residual          L2-NORM 
          0                 1           2             2    2     1       0.4733481710E-02       2    2    1         0.2470969832E+00      0.6364937839E+00
          0                 2           2             2    2     1      -0.4604395563E-03       2    2    1        -0.2470975552E-01      0.6303669227E-01
          0                 3           1             2    2     1       0.3135421848E-04       2    2    1         0.1729683089E-02      0.4356112170E-02

    ------------------------------------------------
       NWT REQUIRED            3 OUTER ITERATIONS 
       AND A TOTAL OF          5 INNER ITERATIONS.
    ------------------------------------------------

 NO OUTPUT CONTROL FOR STRESS PERIOD    4   TIME STEP    5
 
 SOLVING FOR HEAD 
                                                   Max.-Head-Change                         Max.-Flux-Residual
  Residual-Control   Outer-Iter.   Inner-Iter.     Column Row Layer    Maximum-Head-Change  Column Row Layer    Maximum-Flux-Residual          L2-NORM 
          0                 1           2             2    2     1       0.4704671723E-02       2    2    1         0.2455825377E+00      0.6193639979E+00
          0                 2           2             2    2     1      -0.4576371155E-03       2    2    1        -0.2455830999E-01      0.6139710657E-01
          0                 3           1             2    2     1       0.3116338291E-04       2    2    1         0.1719081920E-02      0.4248789101E-02

    ------------------------------------------------
       NWT REQUIRED            3 OUTER ITERATIONS 
       AND A TOTAL OF          5 INNER ITERATIONS.
    ------------------------------------------------

 NO OUTPUT CONTROL FOR STRESS PERIOD    4   TIME STEP    6
 
 SOLVING FOR HEAD 
                                                   Max.-Head-Change                         Max.-Flux-Residual
  Residual-Control   Outer-Iter.   Inner-Iter.     Column Row Layer    Maximum-Head-Change  Column Row Layer    Maximum-Flux-Residual          L2-NORM 
          0                 1           2             2    2     1       0.4676254724E-02       2    2    1         0.2440887720E+00      0.6041379785E+00
          0                 2           2             2    2     1      -0.4548729011E-03       2    2    1        -0.2440893243E-01      0.5993787656E-01
          0                 3           1             2    2     1       0.3097515027E-04       2    2    1         0.1708625487E-02      0.4151729320E-02

    ------------------------------------------------
       NWT REQUIRED            3 OUTER ITERATIONS 
       AND A TOTAL OF          5 INNER ITERATIONS.
    ------------------------------------------------

 NO OUTPUT CONTROL FOR STRESS PERIOD    4   TIME STEP    7
 
 SOLVING FOR HEAD 
                                                   Max.-Head-Change                         Max.-Flux-Residual
  Residual-Control   Outer-Iter.   Inner-Iter.     Column Row Layer    Maximum-Head-Change  Column Row Layer    Maximum-Flux-Residual          L2-NORM 
          0                 1           2             2    2     1       0.4648224625E-02       2    2    1         0.2426153824E+00      0.5905842825E+00
          0                 2           2             2    2     1      -0.4521463224E-03       2    2    1        -0.2426159251E-01      0.5864016789E-01
          0                 3           1             2    2     1       0.3078948032E-04       2    2    1         0.1698311696E-02      0.4066779503E-02

    ------------------------------------------------
       NWT REQUIRED            3 OUTER ITERATIONS 
       AND A TOTAL OF          5 INNER ITERATIONS.
    ------------------------------------------------

 NO OUTPUT CONTROL FOR STRESS PERIOD    4   TIME STEP    8
 
 SOLVING FOR HEAD 
                                                   Max.-Head-Change                         Max.-Flux-Residual
  Residual-Control   Outer-Iter.   Inner-Iter.     Column Row Layer    Maximum-Head-Change  Column Row Layer    Maximum-Flux-Residual          L2-NORM 
          0                 1           2             2    2     1       0.4620490796E-02       2    2    1         0.2411576139E+00      0.5784936515E+00
          0                 2           2             2    2     1      -0.4494485629E-03       2    2    1        -0.2411581473E-01      0.5748079373E-01
          0                 3           1             2    2     1       0.3060577287E-04       2    2    1         0.1688107249E-02      0.3990009837E-02

    ------------------------------------------------
       NWT REQUIRED            3 OUTER ITERATIONS 
       AND A TOTAL OF          5 INNER ITERATIONS.
    ------------------------------------------------

 NO OUTPUT CONTROL FOR STRESS PERIOD    4   TIME STEP    9
 
 SOLVING FOR HEAD 
                                                   Max.-Head-Change                         Max.-Flux-Residual
  Residual-Control   Outer-Iter.   Inner-Iter.     Column Row Layer    Maximum-Head-Change  Column Row Layer    Maximum-Flux-Residual          L2-NORM 
          0                 1           2             2    2     1       0.4593217499E-02       2    2    1         0.2397240851E+00      0.5676879250E+00
          0                 2           2             2    2     1      -0.4467956013E-03       2    2    1        -0.2397246095E-01      0.5644239693E-01
          0                 3           1             2    2     1       0.3042511661E-04       2    2    1         0.1678072501E-02      0.3919705557E-02

    ------------------------------------------------
       NWT REQUIRED            3 OUTER ITERATIONS 
       AND A TOTAL OF          5 INNER ITERATIONS.
    ------------------------------------------------

 NO OUTPUT CONTROL FOR STRESS PERIOD    4   TIME STEP   10
 
 SOLVING FOR HEAD 
                                                   Max.-Head-Change                         Max.-Flux-Residual
  Residual-Control   Outer-Iter.   Inner-Iter.     Column Row Layer    Maximum-Head-Change  Column Row Layer    Maximum-Flux-Residual          L2-NORM 
          0                 1           2             2    2     1       0.4566229086E-02       2    2    1         0.2383055556E+00      0.5580164441E+00
          0                 2           2             2    2     1      -0.4441703509E-03       2    2    1        -0.2383060709E-01      0.5551733647E-01
          0                 3           1             2    2     1       0.3024634664E-04       2    2    1         0.1668142728E-02      0.3860730970E-02

    ------------------------------------------------
       NWT REQUIRED            3 OUTER ITERATIONS 
       AND A TOTAL OF          5 INNER ITERATIONS.
    ------------------------------------------------

 NO OUTPUT CONTROL FOR STRESS PERIOD    4   TIME STEP   11
 
 SOLVING FOR HEAD 
                                                   Max.-Head-Change                         Max.-Flux-Residual
  Residual-Control   Outer-Iter.   Inner-Iter.     Column Row Layer    Maximum-Head-Change  Column Row Layer    Maximum-Flux-Residual          L2-NORM 
          0                 1           2             2    2     1       0.4539604724E-02       2    2    1         0.2369062365E+00      0.5493256300E+00
          0                 2           2             2    2     1      -0.4415805133E-03       2    2    1        -0.2369067432E-01      0.5468243130E-01
          0                 3           1             2    2     1       0.3006998813E-04       2    2    1         0.1658347432E-02      0.3805047756E-02

    ------------------------------------------------
       NWT REQUIRED            3 OUTER ITERATIONS 
       AND A TOTAL OF          5 INNER ITERATIONS.
    ------------------------------------------------

 NO OUTPUT CONTROL FOR STRESS PERIOD    4   TIME STEP   12
 
 SOLVING FOR HEAD 
                                                   Max.-Head-Change                         Max.-Flux-Residual
  Residual-Control   Outer-Iter.   Inner-Iter.     Column Row Layer    Maximum-Head-Change  Column Row Layer    Maximum-Flux-Residual          L2-NORM 
          0                 1           2             2    2     1       0.4513339485E-02       2    2    1         0.2355257930E+00      0.5415016453E+00
          0                 2           2             2    2     1      -0.4390256092E-03       2    2    1        -0.2355262914E-01      0.5393060692E-01
          0                 3           1             2    2     1       0.2989600890E-04       2    2    1         0.1648684272E-02      0.3755331928E-02

    ------------------------------------------------
       NWT REQUIRED            3 OUTER ITERATIONS 
       AND A TOTAL OF          5 INNER ITERATIONS.
    ------------------------------------------------

 NO OUTPUT CONTROL FOR STRESS PERIOD    4   TIME STEP   13
 
 SOLVING FOR HEAD 
                                                   Max.-Head-Change                         Max.-Flux-Residual
  Residual-Control   Outer-Iter.   Inner-Iter.     Column Row Layer    Maximum-Head-Change  Column Row Layer    Maximum-Flux-Residual          L2-NORM 
          0                 1           2             2    2     1       0.4487427826E-02       2    2    1         0.2341639697E+00      0.5344406390E+00
          0                 2           2             2    2     1      -0.4365050985E-03       2    2    1        -0.2341644594E-01      0.5325071536E-01
          0                 3           1             2    2     1       0.2972437179E-04       2    2    1         0.1639151456E-02      0.3710082794E-02

    ------------------------------------------------
       NWT REQUIRED            3 OUTER ITERATIONS 
       AND A TOTAL OF          5 INNER ITERATIONS.
    ------------------------------------------------

 NO OUTPUT CONTROL FOR STRESS PERIOD    4   TIME STEP   14
 
 SOLVING FOR HEAD 
                                                   Max.-Head-Change                         Max.-Flux-Residual
  Residual-Control   Outer-Iter.   Inner-Iter.     Column Row Layer    Maximum-Head-Change  Column Row Layer    Maximum-Flux-Residual          L2-NORM 
          0                 1           2             2    2     1       0.4461780033E-02       2    2    1         0.2328160390E+00      0.5280411374E+00
          0                 2           2             2    2     1      -0.4340102553E-03       2    2    1        -0.2328165206E-01      0.5263365072E-01
          0                 3           1             2    2     1       0.2955448250E-04       2    2    1         0.1629715893E-02      0.3668517790E-02

    ------------------------------------------------
       NWT REQUIRED            3 OUTER ITERATIONS 
       AND A TOTAL OF          5 INNER ITERATIONS.
    ------------------------------------------------

 NO OUTPUT CONTROL FOR STRESS PERIOD    4   TIME STEP   15
 
 SOLVING FOR HEAD 
                                                   Max.-Head-Change                         Max.-Flux-Residual
  Residual-Control   Outer-Iter.   Inner-Iter.     Column Row Layer    Maximum-Head-Change  Column Row Layer    Maximum-Flux-Residual          L2-NORM 
          0                 1           2             2    2     1       0.4436475633E-02       2    2    1         0.2314862295E+00      0.5222152298E+00
          0                 2           2             2    2     1      -0.4315488156E-03       2    2    1        -0.2314867034E-01      0.5207205197E-01
          0                 3           1             2    2     1       0.2938686765E-04       2    2    1         0.1620407179E-02      0.3631164256E-02

    ------------------------------------------------
       NWT REQUIRED            3 OUTER ITERATIONS 
       AND A TOTAL OF          5 INNER ITERATIONS.
    ------------------------------------------------

 NO OUTPUT CONTROL FOR STRESS PERIOD    4   TIME STEP   16
 
 SOLVING FOR HEAD 
                                                   Max.-Head-Change                         Max.-Flux-Residual
  Residual-Control   Outer-Iter.   Inner-Iter.     Column Row Layer    Maximum-Head-Change  Column Row Layer    Maximum-Flux-Residual          L2-NORM 
          0                 1           2             2    2     1       0.4411510040E-02       2    2    1         0.2301742244E+00      0.5168939270E+00
          0                 2           2             2    2     1      -0.4291203322E-03       2    2    1        -0.2301746904E-01      0.5155762869E-01
          0                 3           1             2    2     1       0.2922149717E-04       2    2    1         0.1611223097E-02      0.3597045539E-02

    ------------------------------------------------
       NWT REQUIRED            3 OUTER ITERATIONS 
       AND A TOTAL OF          5 INNER ITERATIONS.
    ------------------------------------------------

 NO OUTPUT CONTROL FOR STRESS PERIOD    4   TIME STEP   17
 
 SOLVING FOR HEAD 
                                                   Max.-Head-Change                         Max.-Flux-Residual
  Residual-Control   Outer-Iter.   Inner-Iter.     Column Row Layer    Maximum-Head-Change  Column Row Layer    Maximum-Flux-Residual          L2-NORM 
          0                 1           2             2    2     1       0.4386877703E-02       2    2    1         0.2288797862E+00      0.5120294248E+00
          0                 2           2             2    2     1      -0.4267242657E-03       2    2    1        -0.2288802445E-01      0.5108618150E-01
          0                 3           1             2    2     1       0.2905833367E-04       2    2    1         0.1602161971E-02      0.3565162153E-02

    ------------------------------------------------
       NWT REQUIRED            3 OUTER ITERATIONS 
       AND A TOTAL OF          5 INNER ITERATIONS.
    ------------------------------------------------

 NO OUTPUT CONTROL FOR STRESS PERIOD    4   TIME STEP   18
 
 SOLVING FOR HEAD 
                                                   Max.-Head-Change                         Max.-Flux-Residual
  Residual-Control   Outer-Iter.   Inner-Iter.     Column Row Layer    Maximum-Head-Change  Column Row Layer    Maximum-Flux-Residual          L2-NORM 
          0                 1           2             2    2     1       0.4362573845E-02       2    2    1         0.2276026270E+00      0.5075546267E+00
          0                 2           2             2    2     1      -0.4243601519E-03       2    2    1        -0.2276030779E-01      0.5065320008E-01
          0                 3           1             2    2     1       0.2889734662E-04       2    2    1         0.1593221805E-02      0.3536293280E-02

    ------------------------------------------------
       NWT REQUIRED            3 OUTER ITERATIONS 
       AND A TOTAL OF          5 INNER ITERATIONS.
    ------------------------------------------------

 NO OUTPUT CONTROL FOR STRESS PERIOD    4   TIME STEP   19
 
 SOLVING FOR HEAD 
                                                   Max.-Head-Change                         Max.-Flux-Residual
  Residual-Control   Outer-Iter.   Inner-Iter.     Column Row Layer    Maximum-Head-Change  Column Row Layer    Maximum-Flux-Residual          L2-NORM 
          0                 1           2             2    2     1       0.4338508452E-02       2    2    1         0.2263380583E+00      0.5034377484E+00
          0                 2           2             2    2     1      -0.4220192344E-03       2    2    1        -0.2263385019E-01      0.5025361756E-01
          0                 3           1             2    2     1       0.2873793842E-04       2    2    1         0.1584369763E-02      0.3509737241E-02

    ------------------------------------------------
       NWT REQUIRED            3 OUTER ITERATIONS 
       AND A TOTAL OF          5 INNER ITERATIONS.
    ------------------------------------------------

 NO OUTPUT CONTROL FOR STRESS PERIOD    4   TIME STEP   20
 
 SOLVING FOR HEAD 
                                                   Max.-Head-Change                         Max.-Flux-Residual
  Residual-Control   Outer-Iter.   Inner-Iter.     Column Row Layer    Maximum-Head-Change  Column Row Layer    Maximum-Flux-Residual          L2-NORM 
          0                 1           2             2    2     1       0.4314847168E-02       2    2    1         0.2250947353E+00      0.4996133819E+00
          0                 2           2             2    2     1      -0.4197176259E-03       2    2    1        -0.2250951718E-01      0.4988202170E-01
          0                 3           1             2    2     1       0.2858120793E-04       2    2    1         0.1575666462E-02      0.3484505145E-02

    ------------------------------------------------
       NWT REQUIRED            3 OUTER ITERATIONS 
       AND A TOTAL OF          5 INNER ITERATIONS.
    ------------------------------------------------

 NO OUTPUT CONTROL FOR STRESS PERIOD    4   TIME STEP   21
 
 SOLVING FOR HEAD 
                                                   Max.-Head-Change                         Max.-Flux-Residual
  Residual-Control   Outer-Iter.   Inner-Iter.     Column Row Layer    Maximum-Head-Change  Column Row Layer    Maximum-Flux-Residual          L2-NORM 
          0                 1           2             2    2     1       0.4291414479E-02       2    2    1         0.2238634830E+00      0.4960630000E+00
          0                 2           2             2    2     1      -0.4174382541E-03       2    2    1        -0.2238639126E-01      0.4953555933E-01
          0                 3           1             2    2     1       0.2842599145E-04       2    2    1         0.1567047673E-02      0.3460935748E-02

    ------------------------------------------------
       NWT REQUIRED            3 OUTER ITERATIONS 
       AND A TOTAL OF          5 INNER ITERATIONS.
    ------------------------------------------------

 NO OUTPUT CONTROL FOR STRESS PERIOD    4   TIME STEP   22
 
 SOLVING FOR HEAD 
                                                   Max.-Head-Change                         Max.-Flux-Residual
  Residual-Control   Outer-Iter.   Inner-Iter.     Column Row Layer    Maximum-Head-Change  Column Row Layer    Maximum-Flux-Residual          L2-NORM 
          0                 1           2             2    2     1       0.4268291955E-02       2    2    1         0.2226485241E+00      0.4927558579E+00
          0                 2           2             2    2     1      -0.4151890524E-03       2    2    1        -0.2226489467E-01      0.4921288649E-01
          0                 3           1             2    2     1       0.2827282929E-04       2    2    1         0.1558542905E-02      0.3439051360E-02

    ------------------------------------------------
       NWT REQUIRED            3 OUTER ITERATIONS 
       AND A TOTAL OF          5 INNER ITERATIONS.
    ------------------------------------------------

 NO OUTPUT CONTROL FOR STRESS PERIOD    4   TIME STEP   23
 
 SOLVING FOR HEAD 
                                                   Max.-Head-Change                         Max.-Flux-Residual
  Residual-Control   Outer-Iter.   Inner-Iter.     Column Row Layer    Maximum-Head-Change  Column Row Layer    Maximum-Flux-Residual          L2-NORM 
          0                 1           2             2    2     1       0.4245474501E-02       2    2    1         0.2214496470E+00      0.4896634156E+00
          0                 2           2             2    2     1      -0.4129695262E-03       2    2    1        -0.2214500630E-01      0.4890999654E-01
          0                 3           1             2    2     1       0.2812168760E-04       2    2    1         0.1550150717E-02      0.3418764024E-02

    ------------------------------------------------
       NWT REQUIRED            3 OUTER ITERATIONS 
       AND A TOTAL OF          5 INNER ITERATIONS.
    ------------------------------------------------

 NO OUTPUT CONTROL FOR STRESS PERIOD    4   TIME STEP   24
 
 SOLVING FOR HEAD 
                                                   Max.-Head-Change                         Max.-Flux-Residual
  Residual-Control   Outer-Iter.   Inner-Iter.     Column Row Layer    Maximum-Head-Change  Column Row Layer    Maximum-Flux-Residual          L2-NORM 
          0                 1           2             2    2     1       0.4222872837E-02       2    2    1         0.2202621459E+00      0.4867598423E+00
          0                 2           2             2    2     1      -0.4107709911E-03       2    2    1        -0.2202625555E-01      0.4862614022E-01
          0                 3           1             2    2     1       0.2797197567E-04       2    2    1         0.1541838174E-02      0.3398971447E-02

    ------------------------------------------------
       NWT REQUIRED            3 OUTER ITERATIONS 
       AND A TOTAL OF          5 INNER ITERATIONS.
    ------------------------------------------------

 NO OUTPUT CONTROL FOR STRESS PERIOD    4   TIME STEP   25
 
 SOLVING FOR HEAD 
                                                   Max.-Head-Change                         Max.-Flux-Residual
  Residual-Control   Outer-Iter.   Inner-Iter.     Column Row Layer    Maximum-Head-Change  Column Row Layer    Maximum-Flux-Residual          L2-NORM 
          0                 1           2             2    2     1       0.4200652667E-02       2    2    1         0.2190947162E+00      0.4840164055E+00
          0                 2           2             2    2     1      -0.4086095643E-03       2    2    1        -0.2190951193E-01      0.4835785523E-01
          0                 3           1             2    2     1       0.2782479069E-04       2    2    1         0.1533666110E-02      0.3380996787E-02

    ------------------------------------------------
       NWT REQUIRED            3 OUTER ITERATIONS 
       AND A TOTAL OF          5 INNER ITERATIONS.
    ------------------------------------------------

 NO OUTPUT CONTROL FOR STRESS PERIOD    4   TIME STEP   26
 
 SOLVING FOR HEAD 
                                                   Max.-Head-Change                         Max.-Flux-Residual
  Residual-Control   Outer-Iter.   Inner-Iter.     Column Row Layer    Maximum-Head-Change  Column Row Layer    Maximum-Flux-Residual          L2-NORM 
          0                 1           2             2    2     1       0.4178639160E-02       2    2    1         0.2179381834E+00      0.4814391590E+00
          0                 2           2             2    2     1      -0.4064682415E-03       2    2    1        -0.2179385804E-01      0.4810489317E-01
          0                 3           1             2    2     1       0.2767897487E-04       2    2    1         0.1525570355E-02      0.3363678767E-02

    ------------------------------------------------
       NWT REQUIRED            3 OUTER ITERATIONS 
       AND A TOTAL OF          5 INNER ITERATIONS.
    ------------------------------------------------

 NO OUTPUT CONTROL FOR STRESS PERIOD    4   TIME STEP   27
 
 SOLVING FOR HEAD 
                                                   Max.-Head-Change                         Max.-Flux-Residual
  Residual-Control   Outer-Iter.   Inner-Iter.     Column Row Layer    Maximum-Head-Change  Column Row Layer    Maximum-Flux-Residual          L2-NORM 
          0                 1           2             2    2     1       0.4156913551E-02       2    2    1         0.2167968075E+00      0.4789933315E+00
          0                 2           2             2    2     1      -0.4043549225E-03       2    2    1        -0.2167971982E-01      0.4786439523E-01
          0                 3           1             2    2     1       0.2753506545E-04       2    2    1         0.1517580677E-02      0.3347339350E-02

    ------------------------------------------------
       NWT REQUIRED            3 OUTER ITERATIONS 
       AND A TOTAL OF          5 INNER ITERATIONS.
    ------------------------------------------------

 NO OUTPUT CONTROL FOR STRESS PERIOD    4   TIME STEP   28
 
 SOLVING FOR HEAD 
                                                   Max.-Head-Change                         Max.-Flux-Residual
  Residual-Control   Outer-Iter.   Inner-Iter.     Column Row Layer    Maximum-Head-Change  Column Row Layer    Maximum-Flux-Residual          L2-NORM 
          0                 1           2             2    2     1       0.4135471841E-02       2    2    1         0.2156703588E+00      0.4766663408E+00
          0                 2           2             2    2     1      -0.4022692199E-03       2    2    1        -0.2156707436E-01      0.4763557775E-01
          0                 3           1             2    2     1       0.2739303687E-04       2    2    1         0.1509695497E-02      0.3372475522E-02

    ------------------------------------------------
       NWT REQUIRED            3 OUTER ITERATIONS 
       AND A TOTAL OF          5 INNER ITERATIONS.
    ------------------------------------------------

 NO OUTPUT CONTROL FOR STRESS PERIOD    4   TIME STEP   29
 
 SOLVING FOR HEAD 
                                                   Max.-Head-Change                         Max.-Flux-Residual
  Residual-Control   Outer-Iter.   Inner-Iter.     Column Row Layer    Maximum-Head-Change  Column Row Layer    Maximum-Flux-Residual          L2-NORM 
          0                 1           2             2    2     1       0.3369543325E-02       2    2    1         0.1756372830E+00      0.4352889761E+00
          0                 2           2             2    2     1      -0.3277650367E-03       2    2    1        -0.1756375192E-01      0.4340655926E-01
          0                 3           1             2    2     1       0.2231958058E-04       2    2    1         0.1229462943E-02      0.3027373875E-02

    ------------------------------------------------
       NWT REQUIRED            3 OUTER ITERATIONS 
       AND A TOTAL OF          5 INNER ITERATIONS.
    ------------------------------------------------

 NO OUTPUT CONTROL FOR STRESS PERIOD    4   TIME STEP   30



 STREAM LISTING     PERIOD      4   STEP       30

 LAYER ROW COL. STREAM  RCH.  FLOW INTO     FLOW TO   FLOW OUT OF   OVRLND.     DIRECT     STREAM       STREAM     STREAM     STREAM   STREAMBED  STREAMBED
                SEG.NO.  NO.  STRM. RCH.    AQUIFER    STRM. RCH.    RUNOFF     PRECIP       ET          HEAD       DEPTH      WIDTH   CONDCTNC.   GRADIENT

   1    1    1     1     1    2.3343E+01  2.3738E-01   2.3105E+01  0.000E+00  0.000E+00  0.000E+00  1.09420E+03  1.153E+00  1.270E+01  5.716E-02  1.384E+00
   1    2    2     1     2    2.3105E+01  3.6700E-01   2.2738E+01  0.000E+00  0.000E+00  0.000E+00  1.08921E+03  1.148E+00  1.264E+01  8.847E-02  1.383E+00
   1    3    3     1     3    2.2738E+01  3.1238E-01   2.2426E+01  0.000E+00  0.000E+00  0.000E+00  1.08356E+03  1.143E+00  1.257E+01  7.540E-02  1.381E+00
   1    3    4     1     4    2.2426E+01  2.8716E-01   2.2139E+01  0.000E+00  0.000E+00  0.000E+00  1.07855E+03  1.138E+00  1.250E+01  6.939E-02  1.379E+00
   1    4    5     2     1    2.0139E+01  3.1634E-01   1.9822E+01  0.000E+00  0.000E+00  0.000E+00  1.07299E+03  1.056E+00  1.200E+01  7.800E-02  1.352E+00
   1    5    6     2     2    1.9822E+01  2.4280E-01   1.9580E+01  0.000E+00  0.000E+00  0.000E+00  1.06756E+03  1.047E+00  1.200E+01  6.000E-02  1.349E+00
   1    6    6     2     3    1.9580E+01  2.4234E-01   1.9337E+01  0.000E+00  0.000E+00  0.000E+00  1.06283E+03  1.039E+00  1.200E+01  6.000E-02  1.346E+00
   1    7    6     2     4    1.9337E+01  2.4187E-01   1.9095E+01  0.000E+00  0.000E+00  0.000E+00  1.05811E+03  1.031E+00  1.200E+01  6.000E-02  1.344E+00
   1    8    6     2     5    1.9095E+01  2.4140E-01   1.8854E+01  0.000E+00  0.000E+00  0.000E+00  1.05338E+03  1.023E+00  1.200E+01  6.000E-02  1.341E+00
   1    3    5     3     1    2.0000E+00  2.8252E-01   1.7175E+00  0.000E+00  0.000E+00  0.000E+00  1.07555E+03  1.909E+00  9.636E+00  7.227E-02  1.955E+00
   1    3    6     3     2    1.7175E+00  2.4905E-01   1.4684E+00  0.000E+00  0.000E+00  0.000E+00  1.07264E+03  1.727E+00  8.909E+00  6.682E-02  1.864E+00
   1    3    7     3     3    1.4684E+00  1.9718E-01   1.2712E+00  0.000E+00  0.000E+00  0.000E+00  1.06987E+03  1.555E+00  8.218E+00  5.547E-02  1.777E+00
   1    4    8     3     4    1.2712E+00  2.2567E-01   1.0456E+00  0.000E+00  0.000E+00  0.000E+00  1.06682E+03  1.364E+00  7.455E+00  6.709E-02  1.682E+00
   1    5    8     3     5    1.0456E+00  1.5790E-01   8.8768E-01  0.000E+00  0.000E+00  0.000E+00  1.06362E+03  1.164E+00  6.655E+00  4.991E-02  1.582E+00
   1    6    8     3     6    8.8768E-01  5.5980E-02   8.3170E-01  0.000E+00  0.000E+00  0.000E+00  1.06158E+03  1.036E+00  6.145E+00  1.844E-02  1.518E+00
   1    5   10     4     1    1.0000E+01  9.0919E-02   9.9091E+00  0.000E+00  0.000E+00  0.000E+00  1.07836E+03  6.368E-01  1.000E+01  2.500E-02  1.212E+00
   1    5    9     4     2    9.9091E+00  1.8158E-01   9.7275E+00  0.000E+00  0.000E+00  0.000E+00  1.07154E+03  6.315E-01  1.000E+01  5.000E-02  1.211E+00
   1    6    8     4     3    9.7275E+00  1.2689E-01   9.6006E+00  0.000E+00  0.000E+00  0.000E+00  1.06381E+03  6.256E-01  1.000E+01  3.500E-02  1.209E+00
   1    6    8     5     1    1.0432E+01  2.2686E-01   1.0205E+01  0.000E+00  0.000E+00  0.000E+00  1.05868E+03  6.790E-01  1.542E+01  6.166E-02  1.226E+00
   1    7    7     5     2    1.0205E+01  2.7894E-01   9.9265E+00  0.000E+00  0.000E+00  0.000E+00  1.05417E+03  6.732E-01  1.519E+01  7.594E-02  1.224E+00
   1    8    7     5     3    9.9265E+00  1.9221E-01   9.7343E+00  0.000E+00  0.000E+00  0.000E+00  1.04992E+03  6.676E-01  1.497E+01  5.241E-02  1.223E+00
   1    8    6     5     4    9.7343E+00  1.3577E-01   9.5985E+00  0.000E+00  0.000E+00  0.000E+00  1.04691E+03  6.637E-01  1.482E+01  3.706E-02  1.221E+00
   1    9    6     6     1    2.8452E+01  2.5896E-01   2.8194E+01  0.000E+00  0.000E+00  0.000E+00  1.04404E+03  1.316E+00  1.200E+01  6.000E-02  1.439E+00
   1   10    7     6     2    2.8194E+01  2.5853E-01   2.7935E+01  0.000E+00  0.000E+00  0.000E+00  1.03949E+03  1.309E+00  1.200E+01  6.000E-02  1.436E+00
   1   11    7     6     3    2.7935E+01  2.5809E-01   2.7677E+01  0.000E+00  0.000E+00  0.000E+00  1.03494E+03  1.302E+00  1.200E+01  6.000E-02  1.434E+00
   1   12    7     6     4    2.7677E+01  2.5766E-01   2.7419E+01  0.000E+00  0.000E+00  0.000E+00  1.03039E+03  1.294E+00  1.200E+01  6.000E-02  1.431E+00
   1   13    7     6     5    2.7419E+01  8.2030E-03   2.7411E+01  0.000E+00  0.000E+00  0.000E+00  1.02720E+03  1.291E+00  1.200E+01  2.400E-02  1.139E-01
   1   14    9     7     1    1.5000E+02  1.3670E+00   1.4863E+02  0.000E+00  0.000E+00  0.000E+00  1.03987E+03  2.288E+00  5.529E+01  5.593E-01  8.147E-01
   1   13    8     7     2    1.4863E+02  1.9172E+00   1.4672E+02  0.000E+00  0.000E+00  0.000E+00  1.03478E+03  2.279E+00  5.526E+01  6.148E-01  1.040E+00
   1   13    7     7     3    1.4672E+02  1.5809E+00   1.4513E+02  0.000E+00  0.000E+00  0.000E+00  1.02969E+03  2.270E+00  5.521E+01  5.584E-01  9.437E-01
   1   13    6     8     1    1.7255E+02  1.0238E+00   1.7152E+02  0.000E+00  0.000E+00  0.000E+00  1.02484E+03  2.965E+00  4.300E+01  4.382E-01  7.788E-01
   1   13    5     8     2    1.7152E+02  2.5244E-01   1.7127E+02  0.000E+00  0.000E+00  0.000E+00  1.01859E+03  2.961E+00  4.294E+01  4.376E-01  1.923E-01
   1   13    4     8     3    1.7127E+02 -2.2862E+00   1.7356E+02  0.000E+00  0.000E+00  0.000E+00  1.01234E+03  2.968E+00  4.303E+01  4.385E+00 -1.738E-01
   1   13    3     8     4    1.7356E+02 -3.5976E+00   1.7715E+02  0.000E+00  0.000E+00  0.000E+00  1.00611E+03  2.987E+00  4.331E+01  4.413E+00 -2.717E-01
   1   13    2     8     5    1.7715E+02 -2.6042E+00   1.7976E+02  0.000E+00  0.000E+00  0.000E+00  9.99881E+02  3.006E+00  4.359E+01  4.442E+00 -1.954E-01
   1   13    1     8     6    1.7976E+02 -1.9818E+00   1.8174E+02  0.000E+00  0.000E+00  0.000E+00  9.94896E+02  3.021E+00  4.380E+01  2.678E+00 -2.467E-01
   1    8    6     9     1    0.0000E+00  0.0000E+00   0.0000E+00  0.000E+00  0.000E+00  0.000E+00  1.07875E+03  0.000E+00  4.000E+00  0.000E+00  1.000E+00
   1    8    5     9     2    0.0000E+00  0.0000E+00   0.0000E+00  0.000E+00  0.000E+00  0.000E+00  1.07825E+03  0.000E+00  4.000E+00  0.000E+00  1.000E+00





UNSATURATED ZONE PACKAGE VOLUMETRIC BUDGET FOR  TIME STEP    30 STRESS PERIOD    4
  ------------------------------------------------------------------------------



     CUMULATIVE VOLUMES      L**3       RATES FOR THIS TIME STEP      L**3/T
     ------------------                 ------------------------

           IN:                                      IN:
           ---                                      ---
        INFILTRATION =     6759998.6182          INFILTRATION =           0.8475

          OUT:                                     OUT:
          ----                                     ----
              UZF ET =     5917485.4539                UZF ET =           0.7500
        UZF RECHARGE =       73224.0000          UZF RECHARGE =       0.0000E+00

            IN - OUT =      769289.1644              IN - OUT =       9.7500E-02

          STORAGE:                                 STORAGE:
          --------                                 --------
      STORAGE CHANGE =      769289.2225        STORAGE CHANGE =       9.7500E-02

 PERCENT DISCREPANCY IS DIFFERENCE BETWEEN IN-OUT MINUS CHANGE IN STORAGE
 DIVIDED BY THE AVERAGE OF IN AND OUT TIMES 100

 PERCENT DISCREPANCY =           0.00     PERCENT DISCREPANCY =           0.00






1
  VOLUMETRIC BUDGET FOR AGRICULTURAL FIELDS AT  END OF TIME STEP   30, STRESS PERIOD   4
  ------------------------------------------------------------------------------

     CUMULATIVE VOLUMES      L**3       RATES FOR THIS TIME STEP      L**3/T
     ------------------                 ------------------------

           IN:                                      IN:
           ---                                      ---
               AG WELLS  =           0.0000                 AG WELLS  =           0.0000
      DIVERSION SEGMENTS =           0.0000        DIVERSION SEGMENTS =           0.0000
           GW IRRIGATION =           0.0000             GW IRRIGATION =           0.0000
           SW IRRIGATION =           0.0000             SW IRRIGATION =           0.0000
        SYSTEM LOSSES GW =           0.0000          SYSTEM LOSSES GW =           0.0000
        SYSTEM LOSSES SW =           0.0000          SYSTEM LOSSES SW =           0.0000

                TOTAL IN =           0.0000                  TOTAL IN =           0.0000

          OUT:                                     OUT:
          ----                                     ----
               AG WELLS  =           0.0000                 AG WELLS  =           0.0000
      DIVERSION SEGMENTS =           0.0000        DIVERSION SEGMENTS =           0.0000
           GW IRRIGATION =           0.0000             GW IRRIGATION =           0.0000
           SW IRRIGATION =           0.0000             SW IRRIGATION =           0.0000
        SYSTEM LOSSES GW =           0.0000          SYSTEM LOSSES GW =           0.0000
        SYSTEM LOSSES SW =           0.0000          SYSTEM LOSSES SW =           0.0000

               TOTAL OUT =           0.0000                 TOTAL OUT =           0.0000

                IN - OUT =           0.0000                  IN - OUT =           0.0000

     PERCENT DISCREPANCY =           0.00         PERCENT DISCREPANCY =           0.00



1
  VOLUMETRIC BUDGET FOR ENTIRE MODEL AT END OF TIME STEP   30, STRESS PERIOD   4
  ------------------------------------------------------------------------------

     CUMULATIVE VOLUMES      L**3       RATES FOR THIS TIME STEP      L**3/T
     ------------------                 ------------------------

           IN:                                      IN:
           ---                                      ---
             STORAGE     =     4302723.0000               STORAGE     =           0.6662
       CONSTANT HEAD     =           0.0000         CONSTANT HEAD     =           0.0000
     HEAD DEP BOUNDS     =     2295783.0000       HEAD DEP BOUNDS     =           0.2879
      STREAM LEAKAGE     =    93457376.0000        STREAM LEAKAGE     =          12.0729
        UZF RECHARGE     =       73223.9531          UZF RECHARGE     =           0.0000
               GW ET     =           0.0000                 GW ET     =           0.0000
     SURFACE LEAKAGE     =           0.0000       SURFACE LEAKAGE     =           0.0000
           AG WELLS      =           0.0000             AG WELLS      =           0.0000

                TOTAL IN =   100129104.0000                  TOTAL IN =          13.0270

          OUT:                                     OUT:
          ----                                     ----
             STORAGE     =    17553954.0000               STORAGE     =           2.2674
       CONSTANT HEAD     =           0.0000         CONSTANT HEAD     =           0.0000
     HEAD DEP BOUNDS     =     2297699.7500       HEAD DEP BOUNDS     =           0.2902
      STREAM LEAKAGE     =    80281208.0000        STREAM LEAKAGE     =          10.4698
        UZF RECHARGE     =           0.0000          UZF RECHARGE     =           0.0000
               GW ET     =           0.0000                 GW ET     =           0.0000
     SURFACE LEAKAGE     =           0.0000       SURFACE LEAKAGE     =           0.0000
           AG WELLS      =           0.0000             AG WELLS      =           0.0000

               TOTAL OUT =   100132864.0000                 TOTAL OUT =          13.0274

                IN - OUT =       -3760.0000                  IN - OUT =      -4.5490E-04

     PERCENT DISCREPANCY =          -0.00         PERCENT DISCREPANCY =          -0.00






         TIME SUMMARY AT END OF TIME STEP   30 IN STRESS PERIOD    4
                    SECONDS     MINUTES      HOURS       DAYS        YEARS
                    -----------------------------------------------------------
   TIME STEP LENGTH  87667.      1461.1      24.352      1.0147     2.77799E-03
 STRESS PERIOD TIME 2.63000E+06  43833.      730.56      30.440     8.33397E-02
         TOTAL TIME 7.97639E+06 1.32940E+05  2215.7      92.319     0.25276    
1
1
                            STRESS PERIOD NO.    5, LENGTH =   2630000.    
                            -----------------------------------------------

                              NUMBER OF TIME STEPS =    30

                               MULTIPLIER FOR DELT =     1.000

                            INITIAL TIME STEP SIZE =   87666.66    

 REUSING NON-PARAMETER GHB CELLS FROM LAST STRESS PERIOD

      2 GHB CELLS

 REUSING STREAM SEGMENT DATA FROM LAST STRESS PERIOD



            AREAL INFILTRATION RATE
 READING ON UNIT   19 WITH FORMAT: (FREE)              

            1           2           3           4           5           6           7           8           9          10
 ........................................................................................................................
   1   1.0000E-10  2.0000E-10   0.000       0.000       0.000       0.000       0.000       0.000       0.000       0.000    
   2   2.0000E-10  1.0000E-10  2.0000E-10   0.000       0.000      8.0000E-10  8.0000E-10  5.0000E-10   0.000       0.000    
   3    0.000      5.0000E-10  1.0000E-10  1.0000E-10  8.0000E-10  8.0000E-10  5.0000E-10  5.0000E-10   0.000       0.000    
   4   8.0000E-10  5.0000E-10  1.0000E-10  1.0000E-10  1.0000E-10  1.0000E-10  1.0000E-10  1.0000E-10  2.0000E-10   0.000    
   5   8.0000E-10  5.0000E-10  1.0000E-10  1.0000E-10  1.0000E-10  1.0000E-10  1.0000E-10  1.0000E-10  1.0000E-10  1.0000E-10
   6   8.0000E-10  5.0000E-10  5.0000E-10  2.0000E-10  2.0000E-10  1.0000E-10  1.0000E-10  1.0000E-10  1.0000E-10  5.0000E-10
   7   8.0000E-10  5.0000E-10  5.0000E-10  2.0000E-10  2.0000E-10  1.0000E-10  1.0000E-10  2.0000E-10  2.0000E-10   0.000    
   8    0.000      5.0000E-10  5.0000E-10  2.0000E-10  2.0000E-10  1.0000E-10  1.0000E-10  2.0000E-10  5.0000E-10   0.000    
   9    0.000      5.0000E-10  5.0000E-10  2.0000E-10  2.0000E-10  1.0000E-10  1.0000E-10  2.0000E-10  5.0000E-10   0.000    
  10    0.000      5.0000E-10  5.0000E-10  2.0000E-10  2.0000E-10  1.0000E-10  1.0000E-10  2.0000E-10  5.0000E-10  8.0000E-10
  11    0.000      1.0000E-10  1.0000E-10  1.0000E-10  1.0000E-10  1.0000E-10  1.0000E-10  2.0000E-10  5.0000E-10   0.000    
  12   1.0000E-10  1.0000E-10  1.0000E-10  1.0000E-10  1.0000E-10  1.0000E-10  1.0000E-10  1.0000E-10  2.0000E-10   0.000    
  13   1.0000E-10  1.0000E-10  2.0000E-10  2.0000E-10  2.0000E-10  2.0000E-10  2.0000E-10  1.0000E-10  1.0000E-10   0.000    
  14    0.000      2.0000E-10  5.0000E-10  5.0000E-10  5.0000E-10  5.0000E-10  5.0000E-10  2.0000E-10  1.0000E-10   0.000    
  15    0.000       0.000      8.0000E-10  8.0000E-10  8.0000E-10  8.0000E-10   0.000       0.000       0.000       0.000    

                  ET RATE =  2.500000E-08

 USING ET EXTINCTION DEPTH FROM PREVIOUS STRESS PERIOD. CURRENT PERIOD IS:       5

 USING EXTINCTION WATER CONTENT FROM PREVIOUS STRESS PERIOD. CURRENT PERIOD IS:       5

 USING AIR ENTRY PRESSURE FROM PREVIOUS STRESS PERIOD. CURRENT PERIOD IS:       5

 USING ROOT PRESSURE HEAD FROM PREVIOUS STRESS PERIOD. CURRENT PERIOD IS:       5

 USING ROOT ACTIVITY FROM PREVIOUS STRESS PERIOD. CURRENT PERIOD IS:       5

 PROCESSING AG STRESS PERIOD DATA

 READING AG STRESS PERIOD DATA

 READING IRRIGATION SEGMENT

 READING IRRIGATION WELL

 READING SUPPLEMENTAL WELL

 END PROCESSING AG STRESS PERIOD DATA OPTIONS
 
 SOLVING FOR HEAD 
                                                   Max.-Head-Change                         Max.-Flux-Residual
  Residual-Control   Outer-Iter.   Inner-Iter.     Column Row Layer    Maximum-Head-Change  Column Row Layer    Maximum-Flux-Residual          L2-NORM 
          0                 1           2             4   13     1      -0.6298791006E-02       4   13    1        -0.3613000337E+00      0.6577548261E+00
          0                 2           2             4    7     1      -0.1159012142E-01       5    6    1        -0.6253667926E+00      0.1530227843E+01
          0                 3           2             4    7     1       0.9471372691E-02       5    6    1         0.5230915280E+00      0.1285130597E+01
          0                 4           2             4    7     1      -0.3768762516E-03       5    6    1        -0.2139449878E-01      0.5331625820E-01
          0                 5           1             4   13     1      -0.6568268228E-05       4   13    1        -0.3969984664E-03      0.9352081548E-03

    ------------------------------------------------
       NWT REQUIRED            5 OUTER ITERATIONS 
       AND A TOTAL OF          9 INNER ITERATIONS.
    ------------------------------------------------

 NO OUTPUT CONTROL FOR STRESS PERIOD    5   TIME STEP    1
 
 SOLVING FOR HEAD 
                                                   Max.-Head-Change                         Max.-Flux-Residual
  Residual-Control   Outer-Iter.   Inner-Iter.     Column Row Layer    Maximum-Head-Change  Column Row Layer    Maximum-Flux-Residual          L2-NORM 
          0                 1           2             4   13     1      -0.5476498792E-02       4   13    1        -0.3139482694E+00      0.5966781664E+00
          0                 2           2             4   13     1       0.5276561182E-03       4   13    1         0.3110108404E-01      0.5843832371E-01
          0                 3           1             4   13     1      -0.3583061000E-04       4   13    1        -0.2171357344E-02      0.4081420509E-02

    ------------------------------------------------
       NWT REQUIRED            3 OUTER ITERATIONS 
       AND A TOTAL OF          5 INNER ITERATIONS.
    ------------------------------------------------

 OUTPUT CONTROL FOR STRESS PERIOD    5   TIME STEP    2
    PRINT BUDGET
    SAVE BUDGET
 UBDSV1 SAVING "         STORAGE" ON UNIT 102 AT TIME STEP  2, STRESS PERIOD   5
 UBDSV2 SAVING "   CONSTANT HEAD" ON UNIT 102 AT TIME STEP  2, STRESS PERIOD   5
 UBDSV1 SAVING "FLOW RIGHT FACE " ON UNIT 102 AT TIME STEP  2, STRESS PERIOD   5
 UBDSV1 SAVING "FLOW FRONT FACE " ON UNIT 102 AT TIME STEP  2, STRESS PERIOD   5

  HEAD DEP BOUNDS   PERIOD    5   STEP     2
 BOUNDARY      1   LAYER   1   ROW    13   COL     1   RATE   -0.289920    
 BOUNDARY      2   LAYER   1   ROW    14   COL     9   RATE    0.287882    



 STREAM LISTING     PERIOD      5   STEP        2

 LAYER ROW COL. STREAM  RCH.  FLOW INTO     FLOW TO   FLOW OUT OF   OVRLND.     DIRECT     STREAM       STREAM     STREAM     STREAM   STREAMBED  STREAMBED
                SEG.NO.  NO.  STRM. RCH.    AQUIFER    STRM. RCH.    RUNOFF     PRECIP       ET          HEAD       DEPTH      WIDTH   CONDCTNC.   GRADIENT

   1    1    1     1     1    1.0500E+01  1.5271E-01   1.0347E+01  0.000E+00  0.000E+00  0.000E+00  1.09396E+03  9.109E-01  8.677E+00  3.905E-02  1.304E+00
   1    2    2     1     2    1.0347E+01  2.3504E-01   1.0112E+01  0.000E+00  0.000E+00  0.000E+00  1.08896E+03  9.059E-01  8.597E+00  6.018E-02  1.302E+00
   1    3    3     1     3    1.0112E+01  1.9904E-01   9.9132E+00  0.000E+00  0.000E+00  0.000E+00  1.08332E+03  9.003E-01  8.505E+00  5.103E-02  1.300E+00
   1    3    4     1     4    9.9132E+00  1.8195E-01   9.7312E+00  0.000E+00  0.000E+00  0.000E+00  1.07830E+03  8.947E-01  8.417E+00  4.672E-02  1.298E+00
   1    4    5     2     1    7.7312E+00  2.8007E-01   7.4512E+00  0.000E+00  0.000E+00  0.000E+00  1.07252E+03  5.907E-01  1.200E+01  7.800E-02  1.197E+00
   1    5    6     2     2    7.4512E+00  2.1474E-01   7.2364E+00  0.000E+00  0.000E+00  0.000E+00  1.06709E+03  5.790E-01  1.200E+01  6.000E-02  1.193E+00
   1    6    6     2     3    7.2364E+00  2.1413E-01   7.0223E+00  0.000E+00  0.000E+00  0.000E+00  1.06236E+03  5.688E-01  1.200E+01  6.000E-02  1.190E+00
   1    7    6     2     4    7.0223E+00  2.1351E-01   6.8088E+00  0.000E+00  0.000E+00  0.000E+00  1.05763E+03  5.585E-01  1.200E+01  6.000E-02  1.186E+00
   1    8    6     2     5    6.8088E+00  2.1289E-01   6.5959E+00  0.000E+00  0.000E+00  0.000E+00  1.05291E+03  5.481E-01  1.200E+01  6.000E-02  1.183E+00
   1    3    5     3     1    2.0000E+00  2.8252E-01   1.7175E+00  0.000E+00  0.000E+00  0.000E+00  1.07555E+03  1.909E+00  9.636E+00  7.227E-02  1.955E+00
   1    3    6     3     2    1.7175E+00  2.4905E-01   1.4684E+00  0.000E+00  0.000E+00  0.000E+00  1.07264E+03  1.727E+00  8.909E+00  6.682E-02  1.864E+00
   1    3    7     3     3    1.4684E+00  1.9718E-01   1.2712E+00  0.000E+00  0.000E+00  0.000E+00  1.06987E+03  1.555E+00  8.218E+00  5.547E-02  1.777E+00
   1    4    8     3     4    1.2712E+00  2.2567E-01   1.0456E+00  0.000E+00  0.000E+00  0.000E+00  1.06682E+03  1.364E+00  7.455E+00  6.709E-02  1.682E+00
   1    5    8     3     5    1.0456E+00  1.5790E-01   8.8768E-01  0.000E+00  0.000E+00  0.000E+00  1.06362E+03  1.164E+00  6.655E+00  4.991E-02  1.582E+00
   1    6    8     3     6    8.8768E-01  5.5980E-02   8.3170E-01  0.000E+00  0.000E+00  0.000E+00  1.06158E+03  1.036E+00  6.145E+00  1.844E-02  1.518E+00
   1    5   10     4     1    1.0000E+01  9.0919E-02   9.9091E+00  0.000E+00  0.000E+00  0.000E+00  1.07836E+03  6.368E-01  1.000E+01  2.500E-02  1.212E+00
   1    5    9     4     2    9.9091E+00  1.8158E-01   9.7275E+00  0.000E+00  0.000E+00  0.000E+00  1.07154E+03  6.315E-01  1.000E+01  5.000E-02  1.211E+00
   1    6    8     4     3    9.7275E+00  1.2689E-01   9.6006E+00  0.000E+00  0.000E+00  0.000E+00  1.06381E+03  6.256E-01  1.000E+01  3.500E-02  1.209E+00
   1    6    8     5     1    1.0432E+01  2.2686E-01   1.0205E+01  0.000E+00  0.000E+00  0.000E+00  1.05868E+03  6.790E-01  1.542E+01  6.166E-02  1.226E+00
   1    7    7     5     2    1.0205E+01  2.7894E-01   9.9265E+00  0.000E+00  0.000E+00  0.000E+00  1.05417E+03  6.732E-01  1.519E+01  7.594E-02  1.224E+00
   1    8    7     5     3    9.9265E+00  1.9221E-01   9.7343E+00  0.000E+00  0.000E+00  0.000E+00  1.04992E+03  6.676E-01  1.497E+01  5.241E-02  1.223E+00
   1    8    6     5     4    9.7343E+00  1.3577E-01   9.5985E+00  0.000E+00  0.000E+00  0.000E+00  1.04691E+03  6.637E-01  1.482E+01  3.706E-02  1.221E+00
   1    9    6     6     1    1.6193E+01  2.3621E-01   1.5956E+01  0.000E+00  0.000E+00  0.000E+00  1.04366E+03  9.368E-01  1.200E+01  6.000E-02  1.312E+00
   1   10    7     6     2    1.5956E+01  2.3571E-01   1.5721E+01  0.000E+00  0.000E+00  0.000E+00  1.03911E+03  9.285E-01  1.200E+01  6.000E-02  1.310E+00
   1   11    7     6     3    1.5721E+01  2.3521E-01   1.5485E+01  0.000E+00  0.000E+00  0.000E+00  1.03456E+03  9.202E-01  1.200E+01  6.000E-02  1.307E+00
   1   12    7     6     4    1.5485E+01  2.3471E-01   1.5251E+01  0.000E+00  0.000E+00  0.000E+00  1.03000E+03  9.119E-01  1.200E+01  6.000E-02  1.304E+00
   1   13    7     6     5    1.5251E+01 -9.5845E-03   1.5260E+01  0.000E+00  0.000E+00  0.000E+00  1.02682E+03  9.079E-01  1.200E+01  2.400E-01 -1.331E-02
   1   14    9     7     1    1.5000E+02  1.3670E+00   1.4863E+02  0.000E+00  0.000E+00  0.000E+00  1.03987E+03  2.288E+00  5.529E+01  5.593E-01  8.147E-01
   1   13    8     7     2    1.4863E+02  1.9171E+00   1.4672E+02  0.000E+00  0.000E+00  0.000E+00  1.03478E+03  2.279E+00  5.526E+01  6.148E-01  1.039E+00
   1   13    7     7     3    1.4672E+02  1.5814E+00   1.4513E+02  0.000E+00  0.000E+00  0.000E+00  1.02969E+03  2.270E+00  5.521E+01  5.584E-01  9.440E-01
   1   13    6     8     1    1.6039E+02  9.6278E-01   1.5943E+02  0.000E+00  0.000E+00  0.000E+00  1.02476E+03  2.885E+00  4.184E+01  4.263E-01  7.528E-01
   1   13    5     8     2    1.5943E+02  2.1202E-01   1.5922E+02  0.000E+00  0.000E+00  0.000E+00  1.01851E+03  2.881E+00  4.178E+01  4.257E-01  1.660E-01
   1   13    4     8     3    1.5922E+02 -2.5063E+00   1.6173E+02  0.000E+00  0.000E+00  0.000E+00  1.01226E+03  2.889E+00  4.189E+01  4.269E+00 -1.957E-01
   1   13    3     8     4    1.6173E+02 -3.7857E+00   1.6551E+02  0.000E+00  0.000E+00  0.000E+00  1.00604E+03  2.910E+00  4.220E+01  4.300E+00 -2.935E-01
   1   13    2     8     5    1.6551E+02 -2.8086E+00   1.6832E+02  0.000E+00  0.000E+00  0.000E+00  9.99807E+02  2.932E+00  4.251E+01  4.332E+00 -2.161E-01
   1   13    1     8     6    1.6832E+02 -2.1075E+00   1.7043E+02  0.000E+00  0.000E+00  0.000E+00  9.94823E+02  2.948E+00  4.275E+01  2.614E+00 -2.688E-01
   1    8    6     9     1    1.8203E-03  0.0000E+00   1.8203E-03  0.000E+00  0.000E+00  0.000E+00  1.07876E+03  1.292E-02  4.000E+00  0.000E+00  1.004E+00
   1    8    5     9     2    1.8203E-03  0.0000E+00   1.8203E-03  0.000E+00  0.000E+00  0.000E+00  1.07826E+03  1.292E-02  4.000E+00  0.000E+00  1.004E+00



 UBDSV3 SAVING "           GW ET" ON UNIT  61 AT TIME STEP  2, STRESS PERIOD   5
 UBDSV3 SAVING "    UZF RECHARGE" ON UNIT  61 AT TIME STEP  2, STRESS PERIOD   5
 UBDSV3 SAVING " SURFACE LEAKAGE" ON UNIT  61 AT TIME STEP  2, STRESS PERIOD   5
 UBDSV3 SAVING "       HORT+DUNN" ON UNIT  61 AT TIME STEP  2, STRESS PERIOD   5
 UBDSV3 SAVING "  STORAGE CHANGE" ON UNIT  61 AT TIME STEP  2, STRESS PERIOD   5


UNSATURATED ZONE PACKAGE VOLUMETRIC BUDGET FOR  TIME STEP     2 STRESS PERIOD    5
  ------------------------------------------------------------------------------



     CUMULATIVE VOLUMES      L**3       RATES FOR THIS TIME STEP      L**3/T
     ------------------                 ------------------------

           IN:                                      IN:
           ---                                      ---
        INFILTRATION =     7561004.6794          INFILTRATION =           0.8493

          OUT:                                     OUT:
          ----                                     ----
              UZF ET =     7403879.7930                UZF ET =           4.5684
        UZF RECHARGE =       73224.0000          UZF RECHARGE =       0.0000E+00

            IN - OUT =       83900.8864              IN - OUT =          -3.7191

          STORAGE:                                 STORAGE:
          --------                                 --------
      STORAGE CHANGE =       83900.2732        STORAGE CHANGE =          -3.7191

 PERCENT DISCREPANCY IS DIFFERENCE BETWEEN IN-OUT MINUS CHANGE IN STORAGE
 DIVIDED BY THE AVERAGE OF IN AND OUT TIMES 100

 PERCENT DISCREPANCY =           0.00     PERCENT DISCREPANCY =           0.00






 

            AG WELLS      PERIOD    5   STEP   2
 AG WELL      1   LAYER   1   ROW     6   COL     4   RATE     0.00000    
 AG WELL      2   LAYER   1   ROW     6   COL     5   RATE     0.00000    
 AG WELL      3   LAYER   1   ROW     7   COL     4   RATE     0.00000    
 AG WELL      4   LAYER   1   ROW     7   COL     5   RATE     0.00000    
 AG WELL      5   LAYER   1   ROW     8   COL     4   RATE     0.00000    
 AG WELL      6   LAYER   1   ROW     8   COL     5   RATE     0.00000    
 
 

   DIVERSION SEGMENTS     PERIOD    5   STEP   2
 SEGMENT      9   RATE    1.820326E-03
 
 

        SW IRRIGATION     PERIOD    5   STEP   2
 SEGMENT      9   ROW     6   COL     4   RATE    3.033937E-04
 SEGMENT      9   ROW     6   COL     5   RATE    3.033937E-04
 SEGMENT      9   ROW     7   COL     4   RATE    3.033937E-04
 SEGMENT      9   ROW     7   COL     5   RATE    3.033937E-04
 SEGMENT      9   ROW     8   COL     4   RATE    3.033937E-04
 SEGMENT      9   ROW     8   COL     5   RATE    3.033937E-04
 
 

        GW IRRIGATION     PERIOD    5   STEP   2
 AG WELL      1   ROW     6   COL     4   RATE     0.00000    
 AG WELL      2   ROW     6   COL     5   RATE     0.00000    
 AG WELL      3   ROW     7   COL     4   RATE     0.00000    
 AG WELL      4   ROW     7   COL     5   RATE     0.00000    
 AG WELL      5   ROW     8   COL     4   RATE     0.00000    
 AG WELL      6   ROW     8   COL     5   RATE     0.00000    
 
1
  VOLUMETRIC BUDGET FOR AGRICULTURAL FIELDS AT  END OF TIME STEP    2, STRESS PERIOD   5
  ------------------------------------------------------------------------------

     CUMULATIVE VOLUMES      L**3       RATES FOR THIS TIME STEP      L**3/T
     ------------------                 ------------------------

           IN:                                      IN:
           ---                                      ---
               AG WELLS  =       73999.8516                 AG WELLS  =           0.0000
      DIVERSION SEGMENTS =      578399.6875        DIVERSION SEGMENTS =       1.8203E-03
           GW IRRIGATION =           0.0000             GW IRRIGATION =           0.0000
           SW IRRIGATION =           0.0000             SW IRRIGATION =           0.0000
        SYSTEM LOSSES GW =           0.0000          SYSTEM LOSSES GW =           0.0000
        SYSTEM LOSSES SW =           0.0000          SYSTEM LOSSES SW =           0.0000

                TOTAL IN =      652399.5625                  TOTAL IN =       1.8203E-03

          OUT:                                     OUT:
          ----                                     ----
               AG WELLS  =           0.0000                 AG WELLS  =           0.0000
      DIVERSION SEGMENTS =           0.0000        DIVERSION SEGMENTS =           0.0000
           GW IRRIGATION =       73999.8516             GW IRRIGATION =           0.0000
           SW IRRIGATION =      578411.2500             SW IRRIGATION =       1.8204E-03
        SYSTEM LOSSES GW =           0.0000          SYSTEM LOSSES GW =           0.0000
        SYSTEM LOSSES SW =           0.0000          SYSTEM LOSSES SW =           0.0000

               TOTAL OUT =      652411.1250                 TOTAL OUT =       1.8204E-03

                IN - OUT =         -11.5625                  IN - OUT =      -3.6438E-08

     PERCENT DISCREPANCY =          -0.00         PERCENT DISCREPANCY =          -0.00



1
  VOLUMETRIC BUDGET FOR ENTIRE MODEL AT END OF TIME STEP    2, STRESS PERIOD   5
  ------------------------------------------------------------------------------

     CUMULATIVE VOLUMES      L**3       RATES FOR THIS TIME STEP      L**3/T
     ------------------                 ------------------------

           IN:                                      IN:
           ---                                      ---
             STORAGE     =     4672509.0000               STORAGE     =           1.4389
       CONSTANT HEAD     =           0.0000         CONSTANT HEAD     =           0.0000
     HEAD DEP BOUNDS     =     2346258.2500       HEAD DEP BOUNDS     =           0.2879
      STREAM LEAKAGE     =    95426232.0000        STREAM LEAKAGE     =          11.2877
        UZF RECHARGE     =       73223.9531          UZF RECHARGE     =           0.0000
               GW ET     =           0.0000                 GW ET     =           0.0000
     SURFACE LEAKAGE     =           0.0000       SURFACE LEAKAGE     =           0.0000
           AG WELLS      =           0.0000             AG WELLS      =           0.0000

                TOTAL IN =   102518224.0000                  TOTAL IN =          13.0145

          OUT:                                     OUT:
          ----                                     ----
             STORAGE     =    17798652.0000               STORAGE     =           1.5069
       CONSTANT HEAD     =           0.0000         CONSTANT HEAD     =           0.0000
     HEAD DEP BOUNDS     =     2348540.7500       HEAD DEP BOUNDS     =           0.2899
      STREAM LEAKAGE     =    82300792.0000        STREAM LEAKAGE     =          11.2177
        UZF RECHARGE     =           0.0000          UZF RECHARGE     =           0.0000
               GW ET     =           0.0000                 GW ET     =           0.0000
     SURFACE LEAKAGE     =           0.0000       SURFACE LEAKAGE     =           0.0000
           AG WELLS      =       73999.8516             AG WELLS      =           0.0000

               TOTAL OUT =   102521984.0000                 TOTAL OUT =          13.0146

                IN - OUT =       -3760.0000                  IN - OUT =      -5.2452E-05

     PERCENT DISCREPANCY =          -0.00         PERCENT DISCREPANCY =          -0.00






         TIME SUMMARY AT END OF TIME STEP    2 IN STRESS PERIOD    5
                    SECONDS     MINUTES      HOURS       DAYS        YEARS
                    -----------------------------------------------------------
   TIME STEP LENGTH  87667.      1461.1      24.352      1.0147     2.77799E-03
 STRESS PERIOD TIME 1.75333E+05  2922.2      48.704      2.0293     5.55598E-03
         TOTAL TIME 8.15173E+06 1.35862E+05  2264.4      94.349     0.25831    
1
 
 SOLVING FOR HEAD 
                                                   Max.-Head-Change                         Max.-Flux-Residual
  Residual-Control   Outer-Iter.   Inner-Iter.     Column Row Layer    Maximum-Head-Change  Column Row Layer    Maximum-Flux-Residual          L2-NORM 
          0                 1           2             4   13     1      -0.4967011584E-02       4   13    1        -0.2846159407E+00      0.5586837162E+00
          0                 2           2             4    7     1      -0.1159246731E-01       5    6    1        -0.6256292401E+00      0.1531148286E+01
          0                 3           2             4    7     1       0.9471533070E-02       5    6    1         0.5231098994E+00      0.1285136014E+01
          0                 4           2             4    7     1      -0.3768826327E-03       5    6    1        -0.2139525015E-01      0.5330665745E-01
          0                 5           1             4   13     1      -0.6523518401E-05       4   13    1        -0.3942704443E-03      0.9322945665E-03

    ------------------------------------------------
       NWT REQUIRED            5 OUTER ITERATIONS 
       AND A TOTAL OF          9 INNER ITERATIONS.
    ------------------------------------------------

 OUTPUT CONTROL FOR STRESS PERIOD    5   TIME STEP    3
    PRINT BUDGET
    SAVE BUDGET
 UBDSV1 SAVING "         STORAGE" ON UNIT 102 AT TIME STEP  3, STRESS PERIOD   5
 UBDSV2 SAVING "   CONSTANT HEAD" ON UNIT 102 AT TIME STEP  3, STRESS PERIOD   5
 UBDSV1 SAVING "FLOW RIGHT FACE " ON UNIT 102 AT TIME STEP  3, STRESS PERIOD   5
 UBDSV1 SAVING "FLOW FRONT FACE " ON UNIT 102 AT TIME STEP  3, STRESS PERIOD   5

  HEAD DEP BOUNDS   PERIOD    5   STEP     3
 BOUNDARY      1   LAYER   1   ROW    13   COL     1   RATE   -0.289781    
 BOUNDARY      2   LAYER   1   ROW    14   COL     9   RATE    0.287883    



 STREAM LISTING     PERIOD      5   STEP        3

 LAYER ROW COL. STREAM  RCH.  FLOW INTO     FLOW TO   FLOW OUT OF   OVRLND.     DIRECT     STREAM       STREAM     STREAM     STREAM   STREAMBED  STREAMBED
                SEG.NO.  NO.  STRM. RCH.    AQUIFER    STRM. RCH.    RUNOFF     PRECIP       ET          HEAD       DEPTH      WIDTH   CONDCTNC.   GRADIENT

   1    1    1     1     1    1.0500E+01  1.5271E-01   1.0347E+01  0.000E+00  0.000E+00  0.000E+00  1.09396E+03  9.109E-01  8.677E+00  3.905E-02  1.304E+00
   1    2    2     1     2    1.0347E+01  2.3504E-01   1.0112E+01  0.000E+00  0.000E+00  0.000E+00  1.08896E+03  9.059E-01  8.597E+00  6.018E-02  1.302E+00
   1    3    3     1     3    1.0112E+01  1.9904E-01   9.9132E+00  0.000E+00  0.000E+00  0.000E+00  1.08332E+03  9.003E-01  8.505E+00  5.103E-02  1.300E+00
   1    3    4     1     4    9.9132E+00  1.8195E-01   9.7312E+00  0.000E+00  0.000E+00  0.000E+00  1.07830E+03  8.947E-01  8.417E+00  4.672E-02  1.298E+00
   1    4    5     2     1    7.7312E+00  2.8007E-01   7.4512E+00  0.000E+00  0.000E+00  0.000E+00  1.07252E+03  5.907E-01  1.200E+01  7.800E-02  1.197E+00
   1    5    6     2     2    7.4512E+00  2.1474E-01   7.2364E+00  0.000E+00  0.000E+00  0.000E+00  1.06709E+03  5.790E-01  1.200E+01  6.000E-02  1.193E+00
   1    6    6     2     3    7.2364E+00  2.1413E-01   7.0223E+00  0.000E+00  0.000E+00  0.000E+00  1.06236E+03  5.688E-01  1.200E+01  6.000E-02  1.190E+00
   1    7    6     2     4    7.0223E+00  2.1351E-01   6.8088E+00  0.000E+00  0.000E+00  0.000E+00  1.05763E+03  5.585E-01  1.200E+01  6.000E-02  1.186E+00
   1    8    6     2     5    6.8088E+00  2.1289E-01   6.5959E+00  0.000E+00  0.000E+00  0.000E+00  1.05291E+03  5.481E-01  1.200E+01  6.000E-02  1.183E+00
   1    3    5     3     1    2.0000E+00  2.8252E-01   1.7175E+00  0.000E+00  0.000E+00  0.000E+00  1.07555E+03  1.909E+00  9.636E+00  7.227E-02  1.955E+00
   1    3    6     3     2    1.7175E+00  2.4905E-01   1.4684E+00  0.000E+00  0.000E+00  0.000E+00  1.07264E+03  1.727E+00  8.909E+00  6.682E-02  1.864E+00
   1    3    7     3     3    1.4684E+00  1.9718E-01   1.2712E+00  0.000E+00  0.000E+00  0.000E+00  1.06987E+03  1.555E+00  8.218E+00  5.547E-02  1.777E+00
   1    4    8     3     4    1.2712E+00  2.2567E-01   1.0456E+00  0.000E+00  0.000E+00  0.000E+00  1.06682E+03  1.364E+00  7.455E+00  6.709E-02  1.682E+00
   1    5    8     3     5    1.0456E+00  1.5790E-01   8.8768E-01  0.000E+00  0.000E+00  0.000E+00  1.06362E+03  1.164E+00  6.655E+00  4.991E-02  1.582E+00
   1    6    8     3     6    8.8768E-01  5.5980E-02   8.3170E-01  0.000E+00  0.000E+00  0.000E+00  1.06158E+03  1.036E+00  6.145E+00  1.844E-02  1.518E+00
   1    5   10     4     1    1.0000E+01  9.0919E-02   9.9091E+00  0.000E+00  0.000E+00  0.000E+00  1.07836E+03  6.368E-01  1.000E+01  2.500E-02  1.212E+00
   1    5    9     4     2    9.9091E+00  1.8158E-01   9.7275E+00  0.000E+00  0.000E+00  0.000E+00  1.07154E+03  6.315E-01  1.000E+01  5.000E-02  1.211E+00
   1    6    8     4     3    9.7275E+00  1.2689E-01   9.6006E+00  0.000E+00  0.000E+00  0.000E+00  1.06381E+03  6.256E-01  1.000E+01  3.500E-02  1.209E+00
   1    6    8     5     1    1.0432E+01  2.2686E-01   1.0205E+01  0.000E+00  0.000E+00  0.000E+00  1.05868E+03  6.790E-01  1.542E+01  6.166E-02  1.226E+00
   1    7    7     5     2    1.0205E+01  2.7894E-01   9.9265E+00  0.000E+00  0.000E+00  0.000E+00  1.05417E+03  6.732E-01  1.519E+01  7.594E-02  1.224E+00
   1    8    7     5     3    9.9265E+00  1.9221E-01   9.7343E+00  0.000E+00  0.000E+00  0.000E+00  1.04992E+03  6.676E-01  1.497E+01  5.241E-02  1.223E+00
   1    8    6     5     4    9.7343E+00  1.3577E-01   9.5985E+00  0.000E+00  0.000E+00  0.000E+00  1.04691E+03  6.637E-01  1.482E+01  3.706E-02  1.221E+00
   1    9    6     6     1    9.5985E+00  2.2097E-01   9.3776E+00  0.000E+00  0.000E+00  0.000E+00  1.04341E+03  6.828E-01  1.200E+01  6.000E-02  1.228E+00
   1   10    7     6     2    9.3776E+00  2.2039E-01   9.1572E+00  0.000E+00  0.000E+00  0.000E+00  1.03885E+03  6.732E-01  1.200E+01  6.000E-02  1.224E+00
   1   11    7     6     3    9.1572E+00  2.1981E-01   8.9374E+00  0.000E+00  0.000E+00  0.000E+00  1.03430E+03  6.636E-01  1.200E+01  6.000E-02  1.221E+00
   1   12    7     6     4    8.9374E+00  2.1923E-01   8.7181E+00  0.000E+00  0.000E+00  0.000E+00  1.02974E+03  6.539E-01  1.200E+01  6.000E-02  1.218E+00
   1   13    7     6     5    8.7181E+00 -7.1107E-02   8.7892E+00  0.000E+00  0.000E+00  0.000E+00  1.02656E+03  6.506E-01  1.200E+01  2.400E-01 -9.876E-02
   1   14    9     7     1    1.5000E+02  1.3670E+00   1.4863E+02  0.000E+00  0.000E+00  0.000E+00  1.03987E+03  2.288E+00  5.529E+01  5.593E-01  8.147E-01
   1   13    8     7     2    1.4863E+02  1.9170E+00   1.4672E+02  0.000E+00  0.000E+00  0.000E+00  1.03478E+03  2.279E+00  5.526E+01  6.148E-01  1.039E+00
   1   13    7     7     3    1.4672E+02  1.5820E+00   1.4513E+02  0.000E+00  0.000E+00  0.000E+00  1.02969E+03  2.270E+00  5.521E+01  5.584E-01  9.443E-01
   1   13    6     8     1    1.5392E+02  9.2997E-01   1.5299E+02  0.000E+00  0.000E+00  0.000E+00  1.02472E+03  2.841E+00  4.119E+01  4.198E-01  7.384E-01
   1   13    5     8     2    1.5299E+02  1.9060E-01   1.5280E+02  0.000E+00  0.000E+00  0.000E+00  1.01846E+03  2.837E+00  4.114E+01  4.192E-01  1.516E-01
   1   13    4     8     3    1.5280E+02 -2.6227E+00   1.5543E+02  0.000E+00  0.000E+00  0.000E+00  1.01222E+03  2.846E+00  4.126E+01  4.205E+00 -2.079E-01
   1   13    3     8     4    1.5543E+02 -3.8838E+00   1.5931E+02  0.000E+00  0.000E+00  0.000E+00  1.00599E+03  2.868E+00  4.159E+01  4.238E+00 -3.055E-01
   1   13    2     8     5    1.5931E+02 -2.9160E+00   1.6223E+02  0.000E+00  0.000E+00  0.000E+00  9.99766E+02  2.891E+00  4.192E+01  4.272E+00 -2.275E-01
   1   13    1     8     6    1.6223E+02 -2.1727E+00   1.6440E+02  0.000E+00  0.000E+00  0.000E+00  9.94783E+02  2.908E+00  4.217E+01  2.578E+00 -2.809E-01
   1    8    6     9     1    6.5959E+00  0.0000E+00   6.5959E+00  0.000E+00  0.000E+00  0.000E+00  1.08052E+03  1.765E+00  4.000E+00  0.000E+00  1.588E+00
   1    8    5     9     2    6.5959E+00  0.0000E+00   6.5959E+00  0.000E+00  0.000E+00  0.000E+00  1.08002E+03  1.765E+00  4.000E+00  0.000E+00  1.588E+00



 UBDSV3 SAVING "           GW ET" ON UNIT  61 AT TIME STEP  3, STRESS PERIOD   5
 UBDSV3 SAVING "    UZF RECHARGE" ON UNIT  61 AT TIME STEP  3, STRESS PERIOD   5
 UBDSV3 SAVING " SURFACE LEAKAGE" ON UNIT  61 AT TIME STEP  3, STRESS PERIOD   5
 UBDSV3 SAVING "       HORT+DUNN" ON UNIT  61 AT TIME STEP  3, STRESS PERIOD   5
 UBDSV3 SAVING "  STORAGE CHANGE" ON UNIT  61 AT TIME STEP  3, STRESS PERIOD   5


UNSATURATED ZONE PACKAGE VOLUMETRIC BUDGET FOR  TIME STEP     3 STRESS PERIOD    5
  ------------------------------------------------------------------------------



     CUMULATIVE VOLUMES      L**3       RATES FOR THIS TIME STEP      L**3/T
     ------------------                 ------------------------

           IN:                                      IN:
           ---                                      ---
        INFILTRATION =     8287553.6597          INFILTRATION =           8.2876

          OUT:                                     OUT:
          ----                                     ----
              UZF ET =     7804297.2733                UZF ET =           4.5675
        UZF RECHARGE =       73224.0000          UZF RECHARGE =       0.0000E+00

            IN - OUT =      410032.3864              IN - OUT =           3.7201

          STORAGE:                                 STORAGE:
          --------                                 --------
      STORAGE CHANGE =      410031.7593        STORAGE CHANGE =           3.7201

 PERCENT DISCREPANCY IS DIFFERENCE BETWEEN IN-OUT MINUS CHANGE IN STORAGE
 DIVIDED BY THE AVERAGE OF IN AND OUT TIMES 100

 PERCENT DISCREPANCY =           0.00     PERCENT DISCREPANCY =           0.00






 

            AG WELLS      PERIOD    5   STEP   3
 AG WELL      1   LAYER   1   ROW     6   COL     4   RATE   -0.140684    
 AG WELL      2   LAYER   1   ROW     6   COL     5   RATE   -0.140684    
 AG WELL      3   LAYER   1   ROW     7   COL     4   RATE   -0.140684    
 AG WELL      4   LAYER   1   ROW     7   COL     5   RATE   -0.140684    
 AG WELL      5   LAYER   1   ROW     8   COL     4   RATE   -0.140684    
 AG WELL      6   LAYER   1   ROW     8   COL     5   RATE   -0.140684    
 
 

   DIVERSION SEGMENTS     PERIOD    5   STEP   3
 SEGMENT      9   RATE     6.59590    
 
 

        SW IRRIGATION     PERIOD    5   STEP   3
 SEGMENT      9   ROW     6   COL     4   RATE     1.09934    
 SEGMENT      9   ROW     6   COL     5   RATE     1.09934    
 SEGMENT      9   ROW     7   COL     4   RATE     1.09934    
 SEGMENT      9   ROW     7   COL     5   RATE     1.09934    
 SEGMENT      9   ROW     8   COL     4   RATE     1.09934    
 SEGMENT      9   ROW     8   COL     5   RATE     1.09934    
 
 

        GW IRRIGATION     PERIOD    5   STEP   3
 AG WELL      1   ROW     6   COL     4   RATE    0.140684    
 AG WELL      2   ROW     6   COL     5   RATE    0.140684    
 AG WELL      3   ROW     7   COL     4   RATE    0.140684    
 AG WELL      4   ROW     7   COL     5   RATE    0.140684    
 AG WELL      5   ROW     8   COL     4   RATE    0.140684    
 AG WELL      6   ROW     8   COL     5   RATE    0.140684    
 
1
  VOLUMETRIC BUDGET FOR AGRICULTURAL FIELDS AT  END OF TIME STEP    3, STRESS PERIOD   5
  ------------------------------------------------------------------------------

     CUMULATIVE VOLUMES      L**3       RATES FOR THIS TIME STEP      L**3/T
     ------------------                 ------------------------

           IN:                                      IN:
           ---                                      ---
               AG WELLS  =      147999.7031                 AG WELLS  =           0.8441
      DIVERSION SEGMENTS =     1156639.7500        DIVERSION SEGMENTS =           6.5959
           GW IRRIGATION =           0.0000             GW IRRIGATION =           0.0000
           SW IRRIGATION =           0.0000             SW IRRIGATION =           0.0000
        SYSTEM LOSSES GW =           0.0000          SYSTEM LOSSES GW =           0.0000
        SYSTEM LOSSES SW =           0.0000          SYSTEM LOSSES SW =           0.0000

                TOTAL IN =     1304639.5000                  TOTAL IN =           7.4400

          OUT:                                     OUT:
          ----                                     ----
               AG WELLS  =           0.0000                 AG WELLS  =           0.0000
      DIVERSION SEGMENTS =           0.0000        DIVERSION SEGMENTS =           0.0000
           GW IRRIGATION =      147999.7031             GW IRRIGATION =           0.8441
           SW IRRIGATION =     1156663.0000             SW IRRIGATION =           6.5960
        SYSTEM LOSSES GW =           0.0000          SYSTEM LOSSES GW =           0.0000
        SYSTEM LOSSES SW =           0.0000          SYSTEM LOSSES SW =           0.0000

               TOTAL OUT =     1304662.7500                 TOTAL OUT =           7.4401

                IN - OUT =         -23.2500                  IN - OUT =      -1.3161E-04

     PERCENT DISCREPANCY =          -0.00         PERCENT DISCREPANCY =          -0.00



1
  VOLUMETRIC BUDGET FOR ENTIRE MODEL AT END OF TIME STEP    3, STRESS PERIOD   5
  ------------------------------------------------------------------------------

     CUMULATIVE VOLUMES      L**3       RATES FOR THIS TIME STEP      L**3/T
     ------------------                 ------------------------

           IN:                                      IN:
           ---                                      ---
             STORAGE     =     4898965.0000               STORAGE     =           2.5832
       CONSTANT HEAD     =           0.0000         CONSTANT HEAD     =           0.0000
     HEAD DEP BOUNDS     =     2371496.0000       HEAD DEP BOUNDS     =           0.2879
      STREAM LEAKAGE     =    96405688.0000        STREAM LEAKAGE     =          11.1725
        UZF RECHARGE     =       73223.9531          UZF RECHARGE     =           0.0000
               GW ET     =           0.0000                 GW ET     =           0.0000
     SURFACE LEAKAGE     =           0.0000       SURFACE LEAKAGE     =           0.0000
           AG WELLS      =           0.0000             AG WELLS      =           0.0000

                TOTAL IN =   103749376.0000                  TOTAL IN =          14.0436

          OUT:                                     OUT:
          ----                                     ----
             STORAGE     =    17907646.0000               STORAGE     =           1.2433
       CONSTANT HEAD     =           0.0000         CONSTANT HEAD     =           0.0000
     HEAD DEP BOUNDS     =     2373945.0000       HEAD DEP BOUNDS     =           0.2898
      STREAM LEAKAGE     =    83323536.0000        STREAM LEAKAGE     =          11.6663
        UZF RECHARGE     =           0.0000          UZF RECHARGE     =           0.0000
               GW ET     =           0.0000                 GW ET     =           0.0000
     SURFACE LEAKAGE     =           0.0000       SURFACE LEAKAGE     =           0.0000
           AG WELLS      =      147999.7031             AG WELLS      =           0.8441

               TOTAL OUT =   103753128.0000                 TOTAL OUT =          14.0435

                IN - OUT =       -3752.0000                  IN - OUT =       8.7738E-05

     PERCENT DISCREPANCY =          -0.00         PERCENT DISCREPANCY =           0.00






         TIME SUMMARY AT END OF TIME STEP    3 IN STRESS PERIOD    5
                    SECONDS     MINUTES      HOURS       DAYS        YEARS
                    -----------------------------------------------------------
   TIME STEP LENGTH  87667.      1461.1      24.352      1.0147     2.77799E-03
 STRESS PERIOD TIME 2.63000E+05  4383.3      73.056      3.0440     8.33397E-03
         TOTAL TIME 8.23939E+06 1.37323E+05  2288.7      95.363     0.26109    
1
 
 SOLVING FOR HEAD 
                                                   Max.-Head-Change                         Max.-Flux-Residual
  Residual-Control   Outer-Iter.   Inner-Iter.     Column Row Layer    Maximum-Head-Change  Column Row Layer    Maximum-Flux-Residual          L2-NORM 
          0                 1           2             2   13     1      -0.4368369078E-02       2   13    1        -0.2453832296E+00      0.5087248670E+00
          0                 2           2             4   13     1       0.4122031429E-03       4   13    1         0.2426764062E-01      0.4988289647E-01
          0                 3           1             4   13     1      -0.2772927516E-04       4   13    1        -0.1678457512E-02      0.3400132474E-02

    ------------------------------------------------
       NWT REQUIRED            3 OUTER ITERATIONS 
       AND A TOTAL OF          5 INNER ITERATIONS.
    ------------------------------------------------

 OUTPUT CONTROL FOR STRESS PERIOD    5   TIME STEP    4
    PRINT BUDGET
    SAVE BUDGET
 UBDSV1 SAVING "         STORAGE" ON UNIT 102 AT TIME STEP  4, STRESS PERIOD   5
 UBDSV2 SAVING "   CONSTANT HEAD" ON UNIT 102 AT TIME STEP  4, STRESS PERIOD   5
 UBDSV1 SAVING "FLOW RIGHT FACE " ON UNIT 102 AT TIME STEP  4, STRESS PERIOD   5
 UBDSV1 SAVING "FLOW FRONT FACE " ON UNIT 102 AT TIME STEP  4, STRESS PERIOD   5

  HEAD DEP BOUNDS   PERIOD    5   STEP     4
 BOUNDARY      1   LAYER   1   ROW    13   COL     1   RATE   -0.289694    
 BOUNDARY      2   LAYER   1   ROW    14   COL     9   RATE    0.287884    



 STREAM LISTING     PERIOD      5   STEP        4

 LAYER ROW COL. STREAM  RCH.  FLOW INTO     FLOW TO   FLOW OUT OF   OVRLND.     DIRECT     STREAM       STREAM     STREAM     STREAM   STREAMBED  STREAMBED
                SEG.NO.  NO.  STRM. RCH.    AQUIFER    STRM. RCH.    RUNOFF     PRECIP       ET          HEAD       DEPTH      WIDTH   CONDCTNC.   GRADIENT

   1    1    1     1     1    1.0500E+01  1.5271E-01   1.0347E+01  0.000E+00  0.000E+00  0.000E+00  1.09396E+03  9.109E-01  8.677E+00  3.905E-02  1.304E+00
   1    2    2     1     2    1.0347E+01  2.3504E-01   1.0112E+01  0.000E+00  0.000E+00  0.000E+00  1.08896E+03  9.059E-01  8.597E+00  6.018E-02  1.302E+00
   1    3    3     1     3    1.0112E+01  1.9904E-01   9.9132E+00  0.000E+00  0.000E+00  0.000E+00  1.08332E+03  9.003E-01  8.505E+00  5.103E-02  1.300E+00
   1    3    4     1     4    9.9132E+00  1.8195E-01   9.7312E+00  0.000E+00  0.000E+00  0.000E+00  1.07830E+03  8.947E-01  8.417E+00  4.672E-02  1.298E+00
   1    4    5     2     1    7.7312E+00  2.8007E-01   7.4512E+00  0.000E+00  0.000E+00  0.000E+00  1.07252E+03  5.907E-01  1.200E+01  7.800E-02  1.197E+00
   1    5    6     2     2    7.4512E+00  2.1474E-01   7.2364E+00  0.000E+00  0.000E+00  0.000E+00  1.06709E+03  5.790E-01  1.200E+01  6.000E-02  1.193E+00
   1    6    6     2     3    7.2364E+00  2.1413E-01   7.0223E+00  0.000E+00  0.000E+00  0.000E+00  1.06236E+03  5.688E-01  1.200E+01  6.000E-02  1.190E+00
   1    7    6     2     4    7.0223E+00  2.1351E-01   6.8088E+00  0.000E+00  0.000E+00  0.000E+00  1.05763E+03  5.585E-01  1.200E+01  6.000E-02  1.186E+00
   1    8    6     2     5    6.8088E+00  2.1289E-01   6.5959E+00  0.000E+00  0.000E+00  0.000E+00  1.05291E+03  5.481E-01  1.200E+01  6.000E-02  1.183E+00
   1    3    5     3     1    2.0000E+00  2.8252E-01   1.7175E+00  0.000E+00  0.000E+00  0.000E+00  1.07555E+03  1.909E+00  9.636E+00  7.227E-02  1.955E+00
   1    3    6     3     2    1.7175E+00  2.4905E-01   1.4684E+00  0.000E+00  0.000E+00  0.000E+00  1.07264E+03  1.727E+00  8.909E+00  6.682E-02  1.864E+00
   1    3    7     3     3    1.4684E+00  1.9718E-01   1.2712E+00  0.000E+00  0.000E+00  0.000E+00  1.06987E+03  1.555E+00  8.218E+00  5.547E-02  1.777E+00
   1    4    8     3     4    1.2712E+00  2.2567E-01   1.0456E+00  0.000E+00  0.000E+00  0.000E+00  1.06682E+03  1.364E+00  7.455E+00  6.709E-02  1.682E+00
   1    5    8     3     5    1.0456E+00  1.5790E-01   8.8768E-01  0.000E+00  0.000E+00  0.000E+00  1.06362E+03  1.164E+00  6.655E+00  4.991E-02  1.582E+00
   1    6    8     3     6    8.8768E-01  5.5980E-02   8.3170E-01  0.000E+00  0.000E+00  0.000E+00  1.06158E+03  1.036E+00  6.145E+00  1.844E-02  1.518E+00
   1    5   10     4     1    1.0000E+01  9.0919E-02   9.9091E+00  0.000E+00  0.000E+00  0.000E+00  1.07836E+03  6.368E-01  1.000E+01  2.500E-02  1.212E+00
   1    5    9     4     2    9.9091E+00  1.8158E-01   9.7275E+00  0.000E+00  0.000E+00  0.000E+00  1.07154E+03  6.315E-01  1.000E+01  5.000E-02  1.211E+00
   1    6    8     4     3    9.7275E+00  1.2689E-01   9.6006E+00  0.000E+00  0.000E+00  0.000E+00  1.06381E+03  6.256E-01  1.000E+01  3.500E-02  1.209E+00
   1    6    8     5     1    1.0432E+01  2.2686E-01   1.0205E+01  0.000E+00  0.000E+00  0.000E+00  1.05868E+03  6.790E-01  1.542E+01  6.166E-02  1.226E+00
   1    7    7     5     2    1.0205E+01  2.7894E-01   9.9265E+00  0.000E+00  0.000E+00  0.000E+00  1.05417E+03  6.732E-01  1.519E+01  7.594E-02  1.224E+00
   1    8    7     5     3    9.9265E+00  1.9221E-01   9.7343E+00  0.000E+00  0.000E+00  0.000E+00  1.04992E+03  6.676E-01  1.497E+01  5.241E-02  1.223E+00
   1    8    6     5     4    9.7343E+00  1.3577E-01   9.5985E+00  0.000E+00  0.000E+00  0.000E+00  1.04691E+03  6.637E-01  1.482E+01  3.706E-02  1.221E+00
   1    9    6     6     1    1.6194E+01  2.3621E-01   1.5958E+01  0.000E+00  0.000E+00  0.000E+00  1.04366E+03  9.369E-01  1.200E+01  6.000E-02  1.312E+00
   1   10    7     6     2    1.5958E+01  2.3572E-01   1.5723E+01  0.000E+00  0.000E+00  0.000E+00  1.03911E+03  9.286E-01  1.200E+01  6.000E-02  1.310E+00
   1   11    7     6     3    1.5723E+01  2.3522E-01   1.5487E+01  0.000E+00  0.000E+00  0.000E+00  1.03456E+03  9.203E-01  1.200E+01  6.000E-02  1.307E+00
   1   12    7     6     4    1.5487E+01  2.3472E-01   1.5253E+01  0.000E+00  0.000E+00  0.000E+00  1.03000E+03  9.120E-01  1.200E+01  6.000E-02  1.304E+00
   1   13    7     6     5    1.5253E+01 -9.3590E-03   1.5262E+01  0.000E+00  0.000E+00  0.000E+00  1.02682E+03  9.079E-01  1.200E+01  2.400E-01 -1.300E-02
   1   14    9     7     1    1.5000E+02  1.3670E+00   1.4863E+02  0.000E+00  0.000E+00  0.000E+00  1.03987E+03  2.288E+00  5.529E+01  5.593E-01  8.147E-01
   1   13    8     7     2    1.4863E+02  1.9170E+00   1.4672E+02  0.000E+00  0.000E+00  0.000E+00  1.03478E+03  2.279E+00  5.526E+01  6.148E-01  1.039E+00
   1   13    7     7     3    1.4672E+02  1.5819E+00   1.4513E+02  0.000E+00  0.000E+00  0.000E+00  1.02969E+03  2.270E+00  5.521E+01  5.584E-01  9.443E-01
   1   13    6     8     1    1.6040E+02  9.6359E-01   1.5943E+02  0.000E+00  0.000E+00  0.000E+00  1.02476E+03  2.885E+00  4.184E+01  4.263E-01  7.534E-01
   1   13    5     8     2    1.5943E+02  2.1256E-01   1.5922E+02  0.000E+00  0.000E+00  0.000E+00  1.01851E+03  2.881E+00  4.178E+01  4.257E-01  1.664E-01
   1   13    4     8     3    1.5922E+02 -2.4611E+00   1.6168E+02  0.000E+00  0.000E+00  0.000E+00  1.01226E+03  2.889E+00  4.189E+01  4.269E+00 -1.922E-01
   1   13    3     8     4    1.6168E+02 -3.7452E+00   1.6543E+02  0.000E+00  0.000E+00  0.000E+00  1.00603E+03  2.910E+00  4.219E+01  4.299E+00 -2.904E-01
   1   13    2     8     5    1.6543E+02 -2.7649E+00   1.6819E+02  0.000E+00  0.000E+00  0.000E+00  9.99806E+02  2.931E+00  4.250E+01  4.331E+00 -2.128E-01
   1   13    1     8     6    1.6819E+02 -2.0937E+00   1.7028E+02  0.000E+00  0.000E+00  0.000E+00  9.94822E+02  2.947E+00  4.273E+01  2.613E+00 -2.671E-01
   1    8    6     9     1    0.0000E+00  0.0000E+00   0.0000E+00  0.000E+00  0.000E+00  0.000E+00  1.07875E+03  0.000E+00  4.000E+00  0.000E+00  1.000E+00
   1    8    5     9     2    0.0000E+00  0.0000E+00   0.0000E+00  0.000E+00  0.000E+00  0.000E+00  1.07825E+03  0.000E+00  4.000E+00  0.000E+00  1.000E+00



 UBDSV3 SAVING "           GW ET" ON UNIT  61 AT TIME STEP  4, STRESS PERIOD   5
 UBDSV3 SAVING "    UZF RECHARGE" ON UNIT  61 AT TIME STEP  4, STRESS PERIOD   5
 UBDSV3 SAVING " SURFACE LEAKAGE" ON UNIT  61 AT TIME STEP  4, STRESS PERIOD   5
 UBDSV3 SAVING "       HORT+DUNN" ON UNIT  61 AT TIME STEP  4, STRESS PERIOD   5
 UBDSV3 SAVING "  STORAGE CHANGE" ON UNIT  61 AT TIME STEP  4, STRESS PERIOD   5


UNSATURATED ZONE PACKAGE VOLUMETRIC BUDGET FOR  TIME STEP     4 STRESS PERIOD    5
  ------------------------------------------------------------------------------



     CUMULATIVE VOLUMES      L**3       RATES FOR THIS TIME STEP      L**3/T
     ------------------                 ------------------------

           IN:                                      IN:
           ---                                      ---
        INFILTRATION =     8361851.1555          INFILTRATION =           0.8475

          OUT:                                     OUT:
          ----                                     ----
              UZF ET =     8204725.5817                UZF ET =           4.5676
        UZF RECHARGE =       73224.0000          UZF RECHARGE =       0.0000E+00

            IN - OUT =       83901.5738              IN - OUT =          -3.7201

          STORAGE:                                 STORAGE:
          --------                                 --------
      STORAGE CHANGE =       83900.2867        STORAGE CHANGE =          -3.7201

 PERCENT DISCREPANCY IS DIFFERENCE BETWEEN IN-OUT MINUS CHANGE IN STORAGE
 DIVIDED BY THE AVERAGE OF IN AND OUT TIMES 100

 PERCENT DISCREPANCY =           0.00     PERCENT DISCREPANCY =           0.00






 

            AG WELLS      PERIOD    5   STEP   4
 AG WELL      1   LAYER   1   ROW     6   COL     4   RATE     0.00000    
 AG WELL      2   LAYER   1   ROW     6   COL     5   RATE     0.00000    
 AG WELL      3   LAYER   1   ROW     7   COL     4   RATE     0.00000    
 AG WELL      4   LAYER   1   ROW     7   COL     5   RATE     0.00000    
 AG WELL      5   LAYER   1   ROW     8   COL     4   RATE     0.00000    
 AG WELL      6   LAYER   1   ROW     8   COL     5   RATE     0.00000    
 
 

   DIVERSION SEGMENTS     PERIOD    5   STEP   4
 SEGMENT      9   RATE     0.00000    
 
 

        SW IRRIGATION     PERIOD    5   STEP   4
 SEGMENT      9   ROW     6   COL     4   RATE     0.00000    
 SEGMENT      9   ROW     6   COL     5   RATE     0.00000    
 SEGMENT      9   ROW     7   COL     4   RATE     0.00000    
 SEGMENT      9   ROW     7   COL     5   RATE     0.00000    
 SEGMENT      9   ROW     8   COL     4   RATE     0.00000    
 SEGMENT      9   ROW     8   COL     5   RATE     0.00000    
 
 

        GW IRRIGATION     PERIOD    5   STEP   4
 AG WELL      1   ROW     6   COL     4   RATE     0.00000    
 AG WELL      2   ROW     6   COL     5   RATE     0.00000    
 AG WELL      3   ROW     7   COL     4   RATE     0.00000    
 AG WELL      4   ROW     7   COL     5   RATE     0.00000    
 AG WELL      5   ROW     8   COL     4   RATE     0.00000    
 AG WELL      6   ROW     8   COL     5   RATE     0.00000    
 
1
  VOLUMETRIC BUDGET FOR AGRICULTURAL FIELDS AT  END OF TIME STEP    4, STRESS PERIOD   5
  ------------------------------------------------------------------------------

     CUMULATIVE VOLUMES      L**3       RATES FOR THIS TIME STEP      L**3/T
     ------------------                 ------------------------

           IN:                                      IN:
           ---                                      ---
               AG WELLS  =      147999.7031                 AG WELLS  =           0.0000
      DIVERSION SEGMENTS =     1156639.7500        DIVERSION SEGMENTS =           0.0000
           GW IRRIGATION =           0.0000             GW IRRIGATION =           0.0000
           SW IRRIGATION =           0.0000             SW IRRIGATION =           0.0000
        SYSTEM LOSSES GW =           0.0000          SYSTEM LOSSES GW =           0.0000
        SYSTEM LOSSES SW =           0.0000          SYSTEM LOSSES SW =           0.0000

                TOTAL IN =     1304639.5000                  TOTAL IN =           0.0000

          OUT:                                     OUT:
          ----                                     ----
               AG WELLS  =           0.0000                 AG WELLS  =           0.0000
      DIVERSION SEGMENTS =           0.0000        DIVERSION SEGMENTS =           0.0000
           GW IRRIGATION =      147999.7031             GW IRRIGATION =           0.0000
           SW IRRIGATION =     1156663.0000             SW IRRIGATION =           0.0000
        SYSTEM LOSSES GW =           0.0000          SYSTEM LOSSES GW =           0.0000
        SYSTEM LOSSES SW =           0.0000          SYSTEM LOSSES SW =           0.0000

               TOTAL OUT =     1304662.7500                 TOTAL OUT =           0.0000

                IN - OUT =         -23.2500                  IN - OUT =           0.0000

     PERCENT DISCREPANCY =          -0.00         PERCENT DISCREPANCY =           0.00



1
  VOLUMETRIC BUDGET FOR ENTIRE MODEL AT END OF TIME STEP    4, STRESS PERIOD   5
  ------------------------------------------------------------------------------

     CUMULATIVE VOLUMES      L**3       RATES FOR THIS TIME STEP      L**3/T
     ------------------                 ------------------------

           IN:                                      IN:
           ---                                      ---
             STORAGE     =     5010415.5000               STORAGE     =           1.2713
       CONSTANT HEAD     =           0.0000         CONSTANT HEAD     =           0.0000
     HEAD DEP BOUNDS     =     2396733.7500       HEAD DEP BOUNDS     =           0.2879
      STREAM LEAKAGE     =    97395400.0000        STREAM LEAKAGE     =          11.2895
        UZF RECHARGE     =       73223.9531          UZF RECHARGE     =           0.0000
               GW ET     =           0.0000                 GW ET     =           0.0000
     SURFACE LEAKAGE     =           0.0000       SURFACE LEAKAGE     =           0.0000
           AG WELLS      =           0.0000             AG WELLS      =           0.0000

                TOTAL IN =   104875776.0000                  TOTAL IN =          12.8487

          OUT:                                     OUT:
          ----                                     ----
             STORAGE     =    18037806.0000               STORAGE     =           1.4847
       CONSTANT HEAD     =           0.0000         CONSTANT HEAD     =           0.0000
     HEAD DEP BOUNDS     =     2399341.5000       HEAD DEP BOUNDS     =           0.2897
      STREAM LEAKAGE     =    84294384.0000        STREAM LEAKAGE     =          11.0743
        UZF RECHARGE     =           0.0000          UZF RECHARGE     =           0.0000
               GW ET     =           0.0000                 GW ET     =           0.0000
     SURFACE LEAKAGE     =           0.0000       SURFACE LEAKAGE     =           0.0000
           AG WELLS      =      147999.7031             AG WELLS      =           0.0000

               TOTAL OUT =   104879536.0000                 TOTAL OUT =          12.8487

                IN - OUT =       -3760.0000                  IN - OUT =      -5.7220E-05

     PERCENT DISCREPANCY =          -0.00         PERCENT DISCREPANCY =          -0.00






         TIME SUMMARY AT END OF TIME STEP    4 IN STRESS PERIOD    5
                    SECONDS     MINUTES      HOURS       DAYS        YEARS
                    -----------------------------------------------------------
   TIME STEP LENGTH  87667.      1461.1      24.352      1.0147     2.77799E-03
 STRESS PERIOD TIME 3.50667E+05  5844.4      97.407      4.0586     1.11120E-02
         TOTAL TIME 8.32706E+06 1.38784E+05  2313.1      96.378     0.26387    
1
 
 SOLVING FOR HEAD 
                                                   Max.-Head-Change                         Max.-Flux-Residual
  Residual-Control   Outer-Iter.   Inner-Iter.     Column Row Layer    Maximum-Head-Change  Column Row Layer    Maximum-Flux-Residual          L2-NORM 
          0                 1           2             2   13     1      -0.4051040366E-02       2   13    1        -0.2275350842E+00      0.4795829992E+00
          0                 2           2             4    7     1      -0.1159491935E-01       5    6    1        -0.6258613868E+00      0.1532228284E+01
          0                 3           2             4    7     1       0.9471700688E-02       5    6    1         0.5231261498E+00      0.1285135434E+01
          0                 4           2             4    7     1      -0.3768893022E-03       5    6    1        -0.2139591481E-01      0.5329738790E-01
          0                 5           1             4   13     1      -0.6467742795E-05       4   13    1        -0.3908886429E-03      0.9284081036E-03

    ------------------------------------------------
       NWT REQUIRED            5 OUTER ITERATIONS 
       AND A TOTAL OF          9 INNER ITERATIONS.
    ------------------------------------------------

 NO OUTPUT CONTROL FOR STRESS PERIOD    5   TIME STEP    5
 
 SOLVING FOR HEAD 
                                                   Max.-Head-Change                         Max.-Flux-Residual
  Residual-Control   Outer-Iter.   Inner-Iter.     Column Row Layer    Maximum-Head-Change  Column Row Layer    Maximum-Flux-Residual          L2-NORM 
          0                 1           2             2   13     1      -0.3583110834E-02       2   13    1        -0.2012166007E+00      0.4389510119E+00
          0                 2           2             2   13     1       0.3350053400E-03       2   13    1         0.1933847363E-01      0.4313857792E-01
          0                 3           1             2   13     1      -0.2158801296E-04       4   13    1        -0.1291147876E-02      0.2950067332E-02

    ------------------------------------------------
       NWT REQUIRED            3 OUTER ITERATIONS 
       AND A TOTAL OF          5 INNER ITERATIONS.
    ------------------------------------------------

 OUTPUT CONTROL FOR STRESS PERIOD    5   TIME STEP    6
    PRINT BUDGET
    SAVE BUDGET
 UBDSV1 SAVING "         STORAGE" ON UNIT 102 AT TIME STEP  6, STRESS PERIOD   5
 UBDSV2 SAVING "   CONSTANT HEAD" ON UNIT 102 AT TIME STEP  6, STRESS PERIOD   5
 UBDSV1 SAVING "FLOW RIGHT FACE " ON UNIT 102 AT TIME STEP  6, STRESS PERIOD   5
 UBDSV1 SAVING "FLOW FRONT FACE " ON UNIT 102 AT TIME STEP  6, STRESS PERIOD   5

  HEAD DEP BOUNDS   PERIOD    5   STEP     6
 BOUNDARY      1   LAYER   1   ROW    13   COL     1   RATE   -0.289485    
 BOUNDARY      2   LAYER   1   ROW    14   COL     9   RATE    0.287886    



 STREAM LISTING     PERIOD      5   STEP        6

 LAYER ROW COL. STREAM  RCH.  FLOW INTO     FLOW TO   FLOW OUT OF   OVRLND.     DIRECT     STREAM       STREAM     STREAM     STREAM   STREAMBED  STREAMBED
                SEG.NO.  NO.  STRM. RCH.    AQUIFER    STRM. RCH.    RUNOFF     PRECIP       ET          HEAD       DEPTH      WIDTH   CONDCTNC.   GRADIENT

   1    1    1     1     1    1.0500E+01  1.5271E-01   1.0347E+01  0.000E+00  0.000E+00  0.000E+00  1.09396E+03  9.109E-01  8.677E+00  3.905E-02  1.304E+00
   1    2    2     1     2    1.0347E+01  2.3505E-01   1.0112E+01  0.000E+00  0.000E+00  0.000E+00  1.08896E+03  9.059E-01  8.597E+00  6.018E-02  1.302E+00
   1    3    3     1     3    1.0112E+01  1.9904E-01   9.9132E+00  0.000E+00  0.000E+00  0.000E+00  1.08332E+03  9.003E-01  8.505E+00  5.103E-02  1.300E+00
   1    3    4     1     4    9.9132E+00  1.8195E-01   9.7313E+00  0.000E+00  0.000E+00  0.000E+00  1.07830E+03  8.947E-01  8.417E+00  4.672E-02  1.298E+00
   1    4    5     2     1    7.7313E+00  2.8007E-01   7.4512E+00  0.000E+00  0.000E+00  0.000E+00  1.07252E+03  5.907E-01  1.200E+01  7.800E-02  1.197E+00
   1    5    6     2     2    7.4512E+00  2.1474E-01   7.2365E+00  0.000E+00  0.000E+00  0.000E+00  1.06709E+03  5.790E-01  1.200E+01  6.000E-02  1.193E+00
   1    6    6     2     3    7.2365E+00  2.1413E-01   7.0224E+00  0.000E+00  0.000E+00  0.000E+00  1.06236E+03  5.688E-01  1.200E+01  6.000E-02  1.190E+00
   1    7    6     2     4    7.0224E+00  2.1351E-01   6.8088E+00  0.000E+00  0.000E+00  0.000E+00  1.05763E+03  5.585E-01  1.200E+01  6.000E-02  1.186E+00
   1    8    6     2     5    6.8088E+00  2.1289E-01   6.5960E+00  0.000E+00  0.000E+00  0.000E+00  1.05291E+03  5.481E-01  1.200E+01  6.000E-02  1.183E+00
   1    3    5     3     1    2.0000E+00  2.8252E-01   1.7175E+00  0.000E+00  0.000E+00  0.000E+00  1.07555E+03  1.909E+00  9.636E+00  7.227E-02  1.955E+00
   1    3    6     3     2    1.7175E+00  2.4905E-01   1.4684E+00  0.000E+00  0.000E+00  0.000E+00  1.07264E+03  1.727E+00  8.909E+00  6.682E-02  1.864E+00
   1    3    7     3     3    1.4684E+00  1.9718E-01   1.2712E+00  0.000E+00  0.000E+00  0.000E+00  1.06987E+03  1.555E+00  8.218E+00  5.547E-02  1.777E+00
   1    4    8     3     4    1.2712E+00  2.2567E-01   1.0456E+00  0.000E+00  0.000E+00  0.000E+00  1.06682E+03  1.364E+00  7.455E+00  6.709E-02  1.682E+00
   1    5    8     3     5    1.0456E+00  1.5790E-01   8.8768E-01  0.000E+00  0.000E+00  0.000E+00  1.06362E+03  1.164E+00  6.655E+00  4.991E-02  1.582E+00
   1    6    8     3     6    8.8768E-01  5.5980E-02   8.3170E-01  0.000E+00  0.000E+00  0.000E+00  1.06158E+03  1.036E+00  6.145E+00  1.844E-02  1.518E+00
   1    5   10     4     1    1.0000E+01  9.0919E-02   9.9091E+00  0.000E+00  0.000E+00  0.000E+00  1.07836E+03  6.368E-01  1.000E+01  2.500E-02  1.212E+00
   1    5    9     4     2    9.9091E+00  1.8158E-01   9.7275E+00  0.000E+00  0.000E+00  0.000E+00  1.07154E+03  6.315E-01  1.000E+01  5.000E-02  1.211E+00
   1    6    8     4     3    9.7275E+00  1.2689E-01   9.6006E+00  0.000E+00  0.000E+00  0.000E+00  1.06381E+03  6.256E-01  1.000E+01  3.500E-02  1.209E+00
   1    6    8     5     1    1.0432E+01  2.2686E-01   1.0205E+01  0.000E+00  0.000E+00  0.000E+00  1.05868E+03  6.790E-01  1.542E+01  6.166E-02  1.226E+00
   1    7    7     5     2    1.0205E+01  2.7894E-01   9.9265E+00  0.000E+00  0.000E+00  0.000E+00  1.05417E+03  6.732E-01  1.519E+01  7.594E-02  1.224E+00
   1    8    7     5     3    9.9265E+00  1.9221E-01   9.7343E+00  0.000E+00  0.000E+00  0.000E+00  1.04992E+03  6.676E-01  1.497E+01  5.241E-02  1.223E+00
   1    8    6     5     4    9.7343E+00  1.3577E-01   9.5985E+00  0.000E+00  0.000E+00  0.000E+00  1.04691E+03  6.637E-01  1.482E+01  3.706E-02  1.221E+00
   1    9    6     6     1    1.6194E+01  2.3621E-01   1.5958E+01  0.000E+00  0.000E+00  0.000E+00  1.04366E+03  9.369E-01  1.200E+01  6.000E-02  1.312E+00
   1   10    7     6     2    1.5958E+01  2.3572E-01   1.5723E+01  0.000E+00  0.000E+00  0.000E+00  1.03911E+03  9.286E-01  1.200E+01  6.000E-02  1.310E+00
   1   11    7     6     3    1.5723E+01  2.3522E-01   1.5487E+01  0.000E+00  0.000E+00  0.000E+00  1.03456E+03  9.203E-01  1.200E+01  6.000E-02  1.307E+00
   1   12    7     6     4    1.5487E+01  2.3472E-01   1.5253E+01  0.000E+00  0.000E+00  0.000E+00  1.03000E+03  9.120E-01  1.200E+01  6.000E-02  1.304E+00
   1   13    7     6     5    1.5253E+01 -9.1572E-03   1.5262E+01  0.000E+00  0.000E+00  0.000E+00  1.02682E+03  9.079E-01  1.200E+01  2.400E-01 -1.272E-02
   1   14    9     7     1    1.5000E+02  1.3671E+00   1.4863E+02  0.000E+00  0.000E+00  0.000E+00  1.03987E+03  2.288E+00  5.529E+01  5.593E-01  8.148E-01
   1   13    8     7     2    1.4863E+02  1.9169E+00   1.4672E+02  0.000E+00  0.000E+00  0.000E+00  1.03478E+03  2.279E+00  5.526E+01  6.148E-01  1.039E+00
   1   13    7     7     3    1.4672E+02  1.5824E+00   1.4513E+02  0.000E+00  0.000E+00  0.000E+00  1.02969E+03  2.270E+00  5.521E+01  5.584E-01  9.446E-01
   1   13    6     8     1    1.6040E+02  9.6433E-01   1.5943E+02  0.000E+00  0.000E+00  0.000E+00  1.02476E+03  2.885E+00  4.184E+01  4.263E-01  7.540E-01
   1   13    5     8     2    1.5943E+02  2.1315E-01   1.5922E+02  0.000E+00  0.000E+00  0.000E+00  1.01851E+03  2.881E+00  4.178E+01  4.257E-01  1.669E-01
   1   13    4     8     3    1.5922E+02 -2.4238E+00   1.6164E+02  0.000E+00  0.000E+00  0.000E+00  1.01226E+03  2.889E+00  4.189E+01  4.268E+00 -1.893E-01
   1   13    3     8     4    1.6164E+02 -3.7108E+00   1.6535E+02  0.000E+00  0.000E+00  0.000E+00  1.00603E+03  2.909E+00  4.219E+01  4.299E+00 -2.877E-01
   1   13    2     8     5    1.6535E+02 -2.7273E+00   1.6808E+02  0.000E+00  0.000E+00  0.000E+00  9.99806E+02  2.931E+00  4.249E+01  4.330E+00 -2.099E-01
   1   13    1     8     6    1.6808E+02 -2.0808E+00   1.7016E+02  0.000E+00  0.000E+00  0.000E+00  9.94821E+02  2.946E+00  4.272E+01  2.612E+00 -2.655E-01
   1    8    6     9     1    0.0000E+00  0.0000E+00   0.0000E+00  0.000E+00  0.000E+00  0.000E+00  1.07875E+03  0.000E+00  4.000E+00  0.000E+00  1.000E+00
   1    8    5     9     2    0.0000E+00  0.0000E+00   0.0000E+00  0.000E+00  0.000E+00  0.000E+00  1.07825E+03  0.000E+00  4.000E+00  0.000E+00  1.000E+00



 UBDSV3 SAVING "           GW ET" ON UNIT  61 AT TIME STEP  6, STRESS PERIOD   5
 UBDSV3 SAVING "    UZF RECHARGE" ON UNIT  61 AT TIME STEP  6, STRESS PERIOD   5
 UBDSV3 SAVING " SURFACE LEAKAGE" ON UNIT  61 AT TIME STEP  6, STRESS PERIOD   5
 UBDSV3 SAVING "       HORT+DUNN" ON UNIT  61 AT TIME STEP  6, STRESS PERIOD   5
 UBDSV3 SAVING "  STORAGE CHANGE" ON UNIT  61 AT TIME STEP  6, STRESS PERIOD   5


UNSATURATED ZONE PACKAGE VOLUMETRIC BUDGET FOR  TIME STEP     6 STRESS PERIOD    5
  ------------------------------------------------------------------------------



     CUMULATIVE VOLUMES      L**3       RATES FOR THIS TIME STEP      L**3/T
     ------------------                 ------------------------

           IN:                                      IN:
           ---                                      ---
        INFILTRATION =     9162697.6315          INFILTRATION =           0.8475

          OUT:                                     OUT:
          ----                                     ----
              UZF ET =     9005571.3937                UZF ET =           4.5676
        UZF RECHARGE =       73224.0000          UZF RECHARGE =       0.0000E+00

            IN - OUT =       83902.2377              IN - OUT =          -3.7201

          STORAGE:                                 STORAGE:
          --------                                 --------
      STORAGE CHANGE =       83900.2867        STORAGE CHANGE =          -3.7201

 PERCENT DISCREPANCY IS DIFFERENCE BETWEEN IN-OUT MINUS CHANGE IN STORAGE
 DIVIDED BY THE AVERAGE OF IN AND OUT TIMES 100

 PERCENT DISCREPANCY =           0.00     PERCENT DISCREPANCY =           0.00






 

            AG WELLS      PERIOD    5   STEP   6
 AG WELL      1   LAYER   1   ROW     6   COL     4   RATE     0.00000    
 AG WELL      2   LAYER   1   ROW     6   COL     5   RATE     0.00000    
 AG WELL      3   LAYER   1   ROW     7   COL     4   RATE     0.00000    
 AG WELL      4   LAYER   1   ROW     7   COL     5   RATE     0.00000    
 AG WELL      5   LAYER   1   ROW     8   COL     4   RATE     0.00000    
 AG WELL      6   LAYER   1   ROW     8   COL     5   RATE     0.00000    
 
 

   DIVERSION SEGMENTS     PERIOD    5   STEP   6
 SEGMENT      9   RATE     0.00000    
 
 

        SW IRRIGATION     PERIOD    5   STEP   6
 SEGMENT      9   ROW     6   COL     4   RATE     0.00000    
 SEGMENT      9   ROW     6   COL     5   RATE     0.00000    
 SEGMENT      9   ROW     7   COL     4   RATE     0.00000    
 SEGMENT      9   ROW     7   COL     5   RATE     0.00000    
 SEGMENT      9   ROW     8   COL     4   RATE     0.00000    
 SEGMENT      9   ROW     8   COL     5   RATE     0.00000    
 
 

        GW IRRIGATION     PERIOD    5   STEP   6
 AG WELL      1   ROW     6   COL     4   RATE     0.00000    
 AG WELL      2   ROW     6   COL     5   RATE     0.00000    
 AG WELL      3   ROW     7   COL     4   RATE     0.00000    
 AG WELL      4   ROW     7   COL     5   RATE     0.00000    
 AG WELL      5   ROW     8   COL     4   RATE     0.00000    
 AG WELL      6   ROW     8   COL     5   RATE     0.00000    
 
1
  VOLUMETRIC BUDGET FOR AGRICULTURAL FIELDS AT  END OF TIME STEP    6, STRESS PERIOD   5
  ------------------------------------------------------------------------------

     CUMULATIVE VOLUMES      L**3       RATES FOR THIS TIME STEP      L**3/T
     ------------------                 ------------------------

           IN:                                      IN:
           ---                                      ---
               AG WELLS  =      221999.5625                 AG WELLS  =           0.0000
      DIVERSION SEGMENTS =     1734879.8750        DIVERSION SEGMENTS =           0.0000
           GW IRRIGATION =           0.0000             GW IRRIGATION =           0.0000
           SW IRRIGATION =           0.0000             SW IRRIGATION =           0.0000
        SYSTEM LOSSES GW =           0.0000          SYSTEM LOSSES GW =           0.0000
        SYSTEM LOSSES SW =           0.0000          SYSTEM LOSSES SW =           0.0000

                TOTAL IN =     1956879.5000                  TOTAL IN =           0.0000

          OUT:                                     OUT:
          ----                                     ----
               AG WELLS  =           0.0000                 AG WELLS  =           0.0000
      DIVERSION SEGMENTS =           0.0000        DIVERSION SEGMENTS =           0.0000
           GW IRRIGATION =      221999.5625             GW IRRIGATION =           0.0000
           SW IRRIGATION =     1734914.7500             SW IRRIGATION =           0.0000
        SYSTEM LOSSES GW =           0.0000          SYSTEM LOSSES GW =           0.0000
        SYSTEM LOSSES SW =           0.0000          SYSTEM LOSSES SW =           0.0000

               TOTAL OUT =     1956914.2500                 TOTAL OUT =           0.0000

                IN - OUT =         -34.7500                  IN - OUT =           0.0000

     PERCENT DISCREPANCY =          -0.00         PERCENT DISCREPANCY =           0.00



1
  VOLUMETRIC BUDGET FOR ENTIRE MODEL AT END OF TIME STEP    6, STRESS PERIOD   5
  ------------------------------------------------------------------------------

     CUMULATIVE VOLUMES      L**3       RATES FOR THIS TIME STEP      L**3/T
     ------------------                 ------------------------

           IN:                                      IN:
           ---                                      ---
             STORAGE     =     5320998.5000               STORAGE     =           1.1285
       CONSTANT HEAD     =           0.0000         CONSTANT HEAD     =           0.0000
     HEAD DEP BOUNDS     =     2447209.7500       HEAD DEP BOUNDS     =           0.2879
      STREAM LEAKAGE     =    99364872.0000        STREAM LEAKAGE     =          11.2912
        UZF RECHARGE     =       73223.9531          UZF RECHARGE     =           0.0000
               GW ET     =           0.0000                 GW ET     =           0.0000
     SURFACE LEAKAGE     =           0.0000       SURFACE LEAKAGE     =           0.0000
           AG WELLS      =           0.0000             AG WELLS      =           0.0000

                TOTAL IN =   107206304.0000                  TOTAL IN =          12.7076

          OUT:                                     OUT:
          ----                                     ----
             STORAGE     =    18272176.0000               STORAGE     =           1.4664
       CONSTANT HEAD     =           0.0000         CONSTANT HEAD     =           0.0000
     HEAD DEP BOUNDS     =     2450104.7500       HEAD DEP BOUNDS     =           0.2895
      STREAM LEAKAGE     =    86265784.0000        STREAM LEAKAGE     =          10.9518
        UZF RECHARGE     =           0.0000          UZF RECHARGE     =           0.0000
               GW ET     =           0.0000                 GW ET     =           0.0000
     SURFACE LEAKAGE     =           0.0000       SURFACE LEAKAGE     =           0.0000
           AG WELLS      =      221999.5625             AG WELLS      =           0.0000

               TOTAL OUT =   107210064.0000                 TOTAL OUT =          12.7077

                IN - OUT =       -3760.0000                  IN - OUT =      -9.2506E-05

     PERCENT DISCREPANCY =          -0.00         PERCENT DISCREPANCY =          -0.00






         TIME SUMMARY AT END OF TIME STEP    6 IN STRESS PERIOD    5
                    SECONDS     MINUTES      HOURS       DAYS        YEARS
                    -----------------------------------------------------------
   TIME STEP LENGTH  87667.      1461.1      24.352      1.0147     2.77799E-03
 STRESS PERIOD TIME 5.26000E+05  8766.7      146.11      6.0880     1.66679E-02
         TOTAL TIME 8.50239E+06 1.41707E+05  2361.8      98.407     0.26942    
1
 
 SOLVING FOR HEAD 
                                                   Max.-Head-Change                         Max.-Flux-Residual
  Residual-Control   Outer-Iter.   Inner-Iter.     Column Row Layer    Maximum-Head-Change  Column Row Layer    Maximum-Flux-Residual          L2-NORM 
          0                 1           2             2   13     1      -0.3323469576E-02       2   13    1        -0.1866163227E+00      0.4170757741E+00
          0                 2           2             4    7     1      -0.1159742580E-01       5    6    1        -0.6260663447E+00      0.1533232396E+01
          0                 3           2             4    7     1       0.9472044758E-02       5    6    1         0.5231500337E+00      0.1285160853E+01
          0                 4           2             4    7     1      -0.3769029934E-03       5    6    1        -0.2139689165E-01      0.5329272907E-01
          0                 5           1             4   13     1      -0.6442791752E-05       4   13    1        -0.3893403127E-03      0.9281165049E-03

    ------------------------------------------------
       NWT REQUIRED            5 OUTER ITERATIONS 
       AND A TOTAL OF          9 INNER ITERATIONS.
    ------------------------------------------------

 OUTPUT CONTROL FOR STRESS PERIOD    5   TIME STEP    7
    PRINT BUDGET
    SAVE BUDGET
 UBDSV1 SAVING "         STORAGE" ON UNIT 102 AT TIME STEP  7, STRESS PERIOD   5
 UBDSV2 SAVING "   CONSTANT HEAD" ON UNIT 102 AT TIME STEP  7, STRESS PERIOD   5
 UBDSV1 SAVING "FLOW RIGHT FACE " ON UNIT 102 AT TIME STEP  7, STRESS PERIOD   5
 UBDSV1 SAVING "FLOW FRONT FACE " ON UNIT 102 AT TIME STEP  7, STRESS PERIOD   5

  HEAD DEP BOUNDS   PERIOD    5   STEP     7
 BOUNDARY      1   LAYER   1   ROW    13   COL     1   RATE   -0.289362    
 BOUNDARY      2   LAYER   1   ROW    14   COL     9   RATE    0.287887    



 STREAM LISTING     PERIOD      5   STEP        7

 LAYER ROW COL. STREAM  RCH.  FLOW INTO     FLOW TO   FLOW OUT OF   OVRLND.     DIRECT     STREAM       STREAM     STREAM     STREAM   STREAMBED  STREAMBED
                SEG.NO.  NO.  STRM. RCH.    AQUIFER    STRM. RCH.    RUNOFF     PRECIP       ET          HEAD       DEPTH      WIDTH   CONDCTNC.   GRADIENT

   1    1    1     1     1    1.0500E+01  1.5271E-01   1.0347E+01  0.000E+00  0.000E+00  0.000E+00  1.09396E+03  9.109E-01  8.677E+00  3.905E-02  1.304E+00
   1    2    2     1     2    1.0347E+01  2.3505E-01   1.0112E+01  0.000E+00  0.000E+00  0.000E+00  1.08896E+03  9.059E-01  8.597E+00  6.018E-02  1.302E+00
   1    3    3     1     3    1.0112E+01  1.9904E-01   9.9132E+00  0.000E+00  0.000E+00  0.000E+00  1.08332E+03  9.003E-01  8.505E+00  5.103E-02  1.300E+00
   1    3    4     1     4    9.9132E+00  1.8195E-01   9.7313E+00  0.000E+00  0.000E+00  0.000E+00  1.07830E+03  8.947E-01  8.417E+00  4.672E-02  1.298E+00
   1    4    5     2     1    7.7313E+00  2.8007E-01   7.4512E+00  0.000E+00  0.000E+00  0.000E+00  1.07252E+03  5.907E-01  1.200E+01  7.800E-02  1.197E+00
   1    5    6     2     2    7.4512E+00  2.1474E-01   7.2365E+00  0.000E+00  0.000E+00  0.000E+00  1.06709E+03  5.790E-01  1.200E+01  6.000E-02  1.193E+00
   1    6    6     2     3    7.2365E+00  2.1413E-01   7.0224E+00  0.000E+00  0.000E+00  0.000E+00  1.06236E+03  5.688E-01  1.200E+01  6.000E-02  1.190E+00
   1    7    6     2     4    7.0224E+00  2.1351E-01   6.8088E+00  0.000E+00  0.000E+00  0.000E+00  1.05763E+03  5.585E-01  1.200E+01  6.000E-02  1.186E+00
   1    8    6     2     5    6.8088E+00  2.1289E-01   6.5960E+00  0.000E+00  0.000E+00  0.000E+00  1.05291E+03  5.481E-01  1.200E+01  6.000E-02  1.183E+00
   1    3    5     3     1    2.0000E+00  2.8252E-01   1.7175E+00  0.000E+00  0.000E+00  0.000E+00  1.07555E+03  1.909E+00  9.636E+00  7.227E-02  1.955E+00
   1    3    6     3     2    1.7175E+00  2.4905E-01   1.4684E+00  0.000E+00  0.000E+00  0.000E+00  1.07264E+03  1.727E+00  8.909E+00  6.682E-02  1.864E+00
   1    3    7     3     3    1.4684E+00  1.9718E-01   1.2712E+00  0.000E+00  0.000E+00  0.000E+00  1.06987E+03  1.555E+00  8.218E+00  5.547E-02  1.777E+00
   1    4    8     3     4    1.2712E+00  2.2567E-01   1.0456E+00  0.000E+00  0.000E+00  0.000E+00  1.06682E+03  1.364E+00  7.455E+00  6.709E-02  1.682E+00
   1    5    8     3     5    1.0456E+00  1.5790E-01   8.8768E-01  0.000E+00  0.000E+00  0.000E+00  1.06362E+03  1.164E+00  6.655E+00  4.991E-02  1.582E+00
   1    6    8     3     6    8.8768E-01  5.5980E-02   8.3170E-01  0.000E+00  0.000E+00  0.000E+00  1.06158E+03  1.036E+00  6.145E+00  1.844E-02  1.518E+00
   1    5   10     4     1    1.0000E+01  9.0919E-02   9.9091E+00  0.000E+00  0.000E+00  0.000E+00  1.07836E+03  6.368E-01  1.000E+01  2.500E-02  1.212E+00
   1    5    9     4     2    9.9091E+00  1.8158E-01   9.7275E+00  0.000E+00  0.000E+00  0.000E+00  1.07154E+03  6.315E-01  1.000E+01  5.000E-02  1.211E+00
   1    6    8     4     3    9.7275E+00  1.2689E-01   9.6006E+00  0.000E+00  0.000E+00  0.000E+00  1.06381E+03  6.256E-01  1.000E+01  3.500E-02  1.209E+00
   1    6    8     5     1    1.0432E+01  2.2686E-01   1.0205E+01  0.000E+00  0.000E+00  0.000E+00  1.05868E+03  6.790E-01  1.542E+01  6.166E-02  1.226E+00
   1    7    7     5     2    1.0205E+01  2.7894E-01   9.9265E+00  0.000E+00  0.000E+00  0.000E+00  1.05417E+03  6.732E-01  1.519E+01  7.594E-02  1.224E+00
   1    8    7     5     3    9.9265E+00  1.9221E-01   9.7343E+00  0.000E+00  0.000E+00  0.000E+00  1.04992E+03  6.676E-01  1.497E+01  5.241E-02  1.223E+00
   1    8    6     5     4    9.7343E+00  1.3577E-01   9.5985E+00  0.000E+00  0.000E+00  0.000E+00  1.04691E+03  6.637E-01  1.482E+01  3.706E-02  1.221E+00
   1    9    6     6     1    9.5985E+00  2.2097E-01   9.3776E+00  0.000E+00  0.000E+00  0.000E+00  1.04341E+03  6.828E-01  1.200E+01  6.000E-02  1.228E+00
   1   10    7     6     2    9.3776E+00  2.2039E-01   9.1572E+00  0.000E+00  0.000E+00  0.000E+00  1.03885E+03  6.732E-01  1.200E+01  6.000E-02  1.224E+00
   1   11    7     6     3    9.1572E+00  2.1981E-01   8.9374E+00  0.000E+00  0.000E+00  0.000E+00  1.03430E+03  6.636E-01  1.200E+01  6.000E-02  1.221E+00
   1   12    7     6     4    8.9374E+00  2.1923E-01   8.7181E+00  0.000E+00  0.000E+00  0.000E+00  1.02974E+03  6.539E-01  1.200E+01  6.000E-02  1.218E+00
   1   13    7     6     5    8.7181E+00 -7.0705E-02   8.7888E+00  0.000E+00  0.000E+00  0.000E+00  1.02656E+03  6.505E-01  1.200E+01  2.400E-01 -9.820E-02
   1   14    9     7     1    1.5000E+02  1.3671E+00   1.4863E+02  0.000E+00  0.000E+00  0.000E+00  1.03987E+03  2.288E+00  5.529E+01  5.593E-01  8.148E-01
   1   13    8     7     2    1.4863E+02  1.9168E+00   1.4672E+02  0.000E+00  0.000E+00  0.000E+00  1.03478E+03  2.279E+00  5.526E+01  6.148E-01  1.039E+00
   1   13    7     7     3    1.4672E+02  1.5829E+00   1.4513E+02  0.000E+00  0.000E+00  0.000E+00  1.02969E+03  2.270E+00  5.521E+01  5.584E-01  9.449E-01
   1   13    6     8     1    1.5392E+02  9.3143E-01   1.5299E+02  0.000E+00  0.000E+00  0.000E+00  1.02472E+03  2.841E+00  4.119E+01  4.198E-01  7.396E-01
   1   13    5     8     2    1.5299E+02  1.9175E-01   1.5280E+02  0.000E+00  0.000E+00  0.000E+00  1.01846E+03  2.837E+00  4.114E+01  4.192E-01  1.525E-01
   1   13    4     8     3    1.5280E+02 -2.5488E+00   1.5535E+02  0.000E+00  0.000E+00  0.000E+00  1.01222E+03  2.845E+00  4.126E+01  4.204E+00 -2.021E-01
   1   13    3     8     4    1.5535E+02 -3.8157E+00   1.5916E+02  0.000E+00  0.000E+00  0.000E+00  1.00599E+03  2.867E+00  4.157E+01  4.237E+00 -3.002E-01
   1   13    2     8     5    1.5916E+02 -2.8415E+00   1.6200E+02  0.000E+00  0.000E+00  0.000E+00  9.99765E+02  2.890E+00  4.190E+01  4.270E+00 -2.218E-01
   1   13    1     8     6    1.6200E+02 -2.1471E+00   1.6415E+02  0.000E+00  0.000E+00  0.000E+00  9.94782E+02  2.907E+00  4.214E+01  2.577E+00 -2.777E-01
   1    8    6     9     1    6.5960E+00  0.0000E+00   6.5960E+00  0.000E+00  0.000E+00  0.000E+00  1.08052E+03  1.765E+00  4.000E+00  0.000E+00  1.588E+00
   1    8    5     9     2    6.5960E+00  0.0000E+00   6.5960E+00  0.000E+00  0.000E+00  0.000E+00  1.08002E+03  1.765E+00  4.000E+00  0.000E+00  1.588E+00



 UBDSV3 SAVING "           GW ET" ON UNIT  61 AT TIME STEP  7, STRESS PERIOD   5
 UBDSV3 SAVING "    UZF RECHARGE" ON UNIT  61 AT TIME STEP  7, STRESS PERIOD   5
 UBDSV3 SAVING " SURFACE LEAKAGE" ON UNIT  61 AT TIME STEP  7, STRESS PERIOD   5
 UBDSV3 SAVING "       HORT+DUNN" ON UNIT  61 AT TIME STEP  7, STRESS PERIOD   5
 UBDSV3 SAVING "  STORAGE CHANGE" ON UNIT  61 AT TIME STEP  7, STRESS PERIOD   5


UNSATURATED ZONE PACKAGE VOLUMETRIC BUDGET FOR  TIME STEP     7 STRESS PERIOD    5
  ------------------------------------------------------------------------------



     CUMULATIVE VOLUMES      L**3       RATES FOR THIS TIME STEP      L**3/T
     ------------------                 ------------------------

           IN:                                      IN:
           ---                                      ---
        INFILTRATION =     9889246.6586          INFILTRATION =           8.2876

          OUT:                                     OUT:
          ----                                     ----
              UZF ET =     9405988.8740                UZF ET =           4.5675
        UZF RECHARGE =       73224.0000          UZF RECHARGE =       0.0000E+00

            IN - OUT =      410033.7846              IN - OUT =           3.7201

          STORAGE:                                 STORAGE:
          --------                                 --------
      STORAGE CHANGE =      410031.8188        STORAGE CHANGE =           3.7201

 PERCENT DISCREPANCY IS DIFFERENCE BETWEEN IN-OUT MINUS CHANGE IN STORAGE
 DIVIDED BY THE AVERAGE OF IN AND OUT TIMES 100

 PERCENT DISCREPANCY =           0.00     PERCENT DISCREPANCY =           0.00






 

            AG WELLS      PERIOD    5   STEP   7
 AG WELL      1   LAYER   1   ROW     6   COL     4   RATE   -0.140675    
 AG WELL      2   LAYER   1   ROW     6   COL     5   RATE   -0.140675    
 AG WELL      3   LAYER   1   ROW     7   COL     4   RATE   -0.140675    
 AG WELL      4   LAYER   1   ROW     7   COL     5   RATE   -0.140675    
 AG WELL      5   LAYER   1   ROW     8   COL     4   RATE   -0.140675    
 AG WELL      6   LAYER   1   ROW     8   COL     5   RATE   -0.140675    
 
 

   DIVERSION SEGMENTS     PERIOD    5   STEP   7
 SEGMENT      9   RATE     6.59595    
 
 

        SW IRRIGATION     PERIOD    5   STEP   7
 SEGMENT      9   ROW     6   COL     4   RATE     1.09935    
 SEGMENT      9   ROW     6   COL     5   RATE     1.09935    
 SEGMENT      9   ROW     7   COL     4   RATE     1.09935    
 SEGMENT      9   ROW     7   COL     5   RATE     1.09935    
 SEGMENT      9   ROW     8   COL     4   RATE     1.09935    
 SEGMENT      9   ROW     8   COL     5   RATE     1.09935    
 
 

        GW IRRIGATION     PERIOD    5   STEP   7
 AG WELL      1   ROW     6   COL     4   RATE    0.140675    
 AG WELL      2   ROW     6   COL     5   RATE    0.140675    
 AG WELL      3   ROW     7   COL     4   RATE    0.140675    
 AG WELL      4   ROW     7   COL     5   RATE    0.140675    
 AG WELL      5   ROW     8   COL     4   RATE    0.140675    
 AG WELL      6   ROW     8   COL     5   RATE    0.140675    
 
1
  VOLUMETRIC BUDGET FOR AGRICULTURAL FIELDS AT  END OF TIME STEP    7, STRESS PERIOD   5
  ------------------------------------------------------------------------------

     CUMULATIVE VOLUMES      L**3       RATES FOR THIS TIME STEP      L**3/T
     ------------------                 ------------------------

           IN:                                      IN:
           ---                                      ---
               AG WELLS  =      295994.4062                 AG WELLS  =           0.8440
      DIVERSION SEGMENTS =     2313125.0000        DIVERSION SEGMENTS =           6.5960
           GW IRRIGATION =           0.0000             GW IRRIGATION =           0.0000
           SW IRRIGATION =           0.0000             SW IRRIGATION =           0.0000
        SYSTEM LOSSES GW =           0.0000          SYSTEM LOSSES GW =           0.0000
        SYSTEM LOSSES SW =           0.0000          SYSTEM LOSSES SW =           0.0000

                TOTAL IN =     2609119.5000                  TOTAL IN =           7.4400

          OUT:                                     OUT:
          ----                                     ----
               AG WELLS  =           0.0000                 AG WELLS  =           0.0000
      DIVERSION SEGMENTS =           0.0000        DIVERSION SEGMENTS =           0.0000
           GW IRRIGATION =      295994.4062             GW IRRIGATION =           0.8440
           SW IRRIGATION =     2313171.5000             SW IRRIGATION =           6.5961
        SYSTEM LOSSES GW =           0.0000          SYSTEM LOSSES GW =           0.0000
        SYSTEM LOSSES SW =           0.0000          SYSTEM LOSSES SW =           0.0000

               TOTAL OUT =     2609166.0000                 TOTAL OUT =           7.4401

                IN - OUT =         -46.5000                  IN - OUT =      -1.3161E-04

     PERCENT DISCREPANCY =          -0.00         PERCENT DISCREPANCY =          -0.00



1
  VOLUMETRIC BUDGET FOR ENTIRE MODEL AT END OF TIME STEP    7, STRESS PERIOD   5
  ------------------------------------------------------------------------------

     CUMULATIVE VOLUMES      L**3       RATES FOR THIS TIME STEP      L**3/T
     ------------------                 ------------------------

           IN:                                      IN:
           ---                                      ---
             STORAGE     =     5519850.0000               STORAGE     =           2.2683
       CONSTANT HEAD     =           0.0000         CONSTANT HEAD     =           0.0000
     HEAD DEP BOUNDS     =     2472447.7500       HEAD DEP BOUNDS     =           0.2879
      STREAM LEAKAGE     =   100344632.0000        STREAM LEAKAGE     =          11.1760
        UZF RECHARGE     =       73223.9531          UZF RECHARGE     =           0.0000
               GW ET     =           0.0000                 GW ET     =           0.0000
     SURFACE LEAKAGE     =           0.0000       SURFACE LEAKAGE     =           0.0000
           AG WELLS      =           0.0000             AG WELLS      =           0.0000

                TOTAL IN =   108410152.0000                  TOTAL IN =          13.7321

          OUT:                                     OUT:
          ----                                     ----
             STORAGE     =    18375168.0000               STORAGE     =           1.1748
       CONSTANT HEAD     =           0.0000         CONSTANT HEAD     =           0.0000
     HEAD DEP BOUNDS     =     2475472.0000       HEAD DEP BOUNDS     =           0.2894
      STREAM LEAKAGE     =    87267272.0000        STREAM LEAKAGE     =          11.4238
        UZF RECHARGE     =           0.0000          UZF RECHARGE     =           0.0000
               GW ET     =           0.0000                 GW ET     =           0.0000
     SURFACE LEAKAGE     =           0.0000       SURFACE LEAKAGE     =           0.0000
           AG WELLS      =      295994.4062             AG WELLS      =           0.8440

               TOTAL OUT =   108413904.0000                 TOTAL OUT =          13.7320

                IN - OUT =       -3752.0000                  IN - OUT =       8.7738E-05

     PERCENT DISCREPANCY =          -0.00         PERCENT DISCREPANCY =           0.00






         TIME SUMMARY AT END OF TIME STEP    7 IN STRESS PERIOD    5
                    SECONDS     MINUTES      HOURS       DAYS        YEARS
                    -----------------------------------------------------------
   TIME STEP LENGTH  87667.      1461.1      24.352      1.0147     2.77799E-03
 STRESS PERIOD TIME 6.13667E+05  10228.      170.46      7.1026     1.94459E-02
         TOTAL TIME 8.59006E+06 1.43168E+05  2386.1      99.422     0.27220    
1
 
 SOLVING FOR HEAD 
                                                   Max.-Head-Change                         Max.-Flux-Residual
  Residual-Control   Outer-Iter.   Inner-Iter.     Column Row Layer    Maximum-Head-Change  Column Row Layer    Maximum-Flux-Residual          L2-NORM 
          0                 1           2             2   13     1      -0.2908483211E-02       2   13    1        -0.1632785904E+00      0.3846392074E+00
          0                 2           2             2   13     1       0.2722191314E-03       2   13    1         0.1570884111E-01      0.3790518571E-01
          0                 3           1             2   13     1      -0.1756226510E-04       2   13    1        -0.1041645231E-02      0.2601583971E-02

    ------------------------------------------------
       NWT REQUIRED            3 OUTER ITERATIONS 
       AND A TOTAL OF          5 INNER ITERATIONS.
    ------------------------------------------------

 OUTPUT CONTROL FOR STRESS PERIOD    5   TIME STEP    8
    PRINT BUDGET
    SAVE BUDGET
 UBDSV1 SAVING "         STORAGE" ON UNIT 102 AT TIME STEP  8, STRESS PERIOD   5
 UBDSV2 SAVING "   CONSTANT HEAD" ON UNIT 102 AT TIME STEP  8, STRESS PERIOD   5
 UBDSV1 SAVING "FLOW RIGHT FACE " ON UNIT 102 AT TIME STEP  8, STRESS PERIOD   5
 UBDSV1 SAVING "FLOW FRONT FACE " ON UNIT 102 AT TIME STEP  8, STRESS PERIOD   5

  HEAD DEP BOUNDS   PERIOD    5   STEP     8
 BOUNDARY      1   LAYER   1   ROW    13   COL     1   RATE   -0.289291    
 BOUNDARY      2   LAYER   1   ROW    14   COL     9   RATE    0.287888    



 STREAM LISTING     PERIOD      5   STEP        8

 LAYER ROW COL. STREAM  RCH.  FLOW INTO     FLOW TO   FLOW OUT OF   OVRLND.     DIRECT     STREAM       STREAM     STREAM     STREAM   STREAMBED  STREAMBED
                SEG.NO.  NO.  STRM. RCH.    AQUIFER    STRM. RCH.    RUNOFF     PRECIP       ET          HEAD       DEPTH      WIDTH   CONDCTNC.   GRADIENT

   1    1    1     1     1    1.0500E+01  1.5271E-01   1.0347E+01  0.000E+00  0.000E+00  0.000E+00  1.09396E+03  9.109E-01  8.677E+00  3.905E-02  1.304E+00
   1    2    2     1     2    1.0347E+01  2.3505E-01   1.0112E+01  0.000E+00  0.000E+00  0.000E+00  1.08896E+03  9.059E-01  8.597E+00  6.018E-02  1.302E+00
   1    3    3     1     3    1.0112E+01  1.9904E-01   9.9132E+00  0.000E+00  0.000E+00  0.000E+00  1.08332E+03  9.003E-01  8.505E+00  5.103E-02  1.300E+00
   1    3    4     1     4    9.9132E+00  1.8195E-01   9.7313E+00  0.000E+00  0.000E+00  0.000E+00  1.07830E+03  8.947E-01  8.417E+00  4.672E-02  1.298E+00
   1    4    5     2     1    7.7313E+00  2.8007E-01   7.4512E+00  0.000E+00  0.000E+00  0.000E+00  1.07252E+03  5.907E-01  1.200E+01  7.800E-02  1.197E+00
   1    5    6     2     2    7.4512E+00  2.1474E-01   7.2365E+00  0.000E+00  0.000E+00  0.000E+00  1.06709E+03  5.790E-01  1.200E+01  6.000E-02  1.193E+00
   1    6    6     2     3    7.2365E+00  2.1413E-01   7.0224E+00  0.000E+00  0.000E+00  0.000E+00  1.06236E+03  5.688E-01  1.200E+01  6.000E-02  1.190E+00
   1    7    6     2     4    7.0224E+00  2.1351E-01   6.8088E+00  0.000E+00  0.000E+00  0.000E+00  1.05763E+03  5.585E-01  1.200E+01  6.000E-02  1.186E+00
   1    8    6     2     5    6.8088E+00  2.1289E-01   6.5960E+00  0.000E+00  0.000E+00  0.000E+00  1.05291E+03  5.481E-01  1.200E+01  6.000E-02  1.183E+00
   1    3    5     3     1    2.0000E+00  2.8252E-01   1.7175E+00  0.000E+00  0.000E+00  0.000E+00  1.07555E+03  1.909E+00  9.636E+00  7.227E-02  1.955E+00
   1    3    6     3     2    1.7175E+00  2.4905E-01   1.4684E+00  0.000E+00  0.000E+00  0.000E+00  1.07264E+03  1.727E+00  8.909E+00  6.682E-02  1.864E+00
   1    3    7     3     3    1.4684E+00  1.9718E-01   1.2712E+00  0.000E+00  0.000E+00  0.000E+00  1.06987E+03  1.555E+00  8.218E+00  5.547E-02  1.777E+00
   1    4    8     3     4    1.2712E+00  2.2567E-01   1.0456E+00  0.000E+00  0.000E+00  0.000E+00  1.06682E+03  1.364E+00  7.455E+00  6.709E-02  1.682E+00
   1    5    8     3     5    1.0456E+00  1.5790E-01   8.8768E-01  0.000E+00  0.000E+00  0.000E+00  1.06362E+03  1.164E+00  6.655E+00  4.991E-02  1.582E+00
   1    6    8     3     6    8.8768E-01  5.5980E-02   8.3170E-01  0.000E+00  0.000E+00  0.000E+00  1.06158E+03  1.036E+00  6.145E+00  1.844E-02  1.518E+00
   1    5   10     4     1    1.0000E+01  9.0919E-02   9.9091E+00  0.000E+00  0.000E+00  0.000E+00  1.07836E+03  6.368E-01  1.000E+01  2.500E-02  1.212E+00
   1    5    9     4     2    9.9091E+00  1.8158E-01   9.7275E+00  0.000E+00  0.000E+00  0.000E+00  1.07154E+03  6.315E-01  1.000E+01  5.000E-02  1.211E+00
   1    6    8     4     3    9.7275E+00  1.2689E-01   9.6006E+00  0.000E+00  0.000E+00  0.000E+00  1.06381E+03  6.256E-01  1.000E+01  3.500E-02  1.209E+00
   1    6    8     5     1    1.0432E+01  2.2686E-01   1.0205E+01  0.000E+00  0.000E+00  0.000E+00  1.05868E+03  6.790E-01  1.542E+01  6.166E-02  1.226E+00
   1    7    7     5     2    1.0205E+01  2.7894E-01   9.9265E+00  0.000E+00  0.000E+00  0.000E+00  1.05417E+03  6.732E-01  1.519E+01  7.594E-02  1.224E+00
   1    8    7     5     3    9.9265E+00  1.9221E-01   9.7343E+00  0.000E+00  0.000E+00  0.000E+00  1.04992E+03  6.676E-01  1.497E+01  5.241E-02  1.223E+00
   1    8    6     5     4    9.7343E+00  1.3577E-01   9.5985E+00  0.000E+00  0.000E+00  0.000E+00  1.04691E+03  6.637E-01  1.482E+01  3.706E-02  1.221E+00
   1    9    6     6     1    1.6194E+01  2.3621E-01   1.5958E+01  0.000E+00  0.000E+00  0.000E+00  1.04366E+03  9.369E-01  1.200E+01  6.000E-02  1.312E+00
   1   10    7     6     2    1.5958E+01  2.3572E-01   1.5723E+01  0.000E+00  0.000E+00  0.000E+00  1.03911E+03  9.286E-01  1.200E+01  6.000E-02  1.310E+00
   1   11    7     6     3    1.5723E+01  2.3522E-01   1.5487E+01  0.000E+00  0.000E+00  0.000E+00  1.03456E+03  9.203E-01  1.200E+01  6.000E-02  1.307E+00
   1   12    7     6     4    1.5487E+01  2.3472E-01   1.5253E+01  0.000E+00  0.000E+00  0.000E+00  1.03000E+03  9.120E-01  1.200E+01  6.000E-02  1.304E+00
   1   13    7     6     5    1.5253E+01 -8.9643E-03   1.5262E+01  0.000E+00  0.000E+00  0.000E+00  1.02682E+03  9.079E-01  1.200E+01  2.400E-01 -1.245E-02
   1   14    9     7     1    1.5000E+02  1.3671E+00   1.4863E+02  0.000E+00  0.000E+00  0.000E+00  1.03987E+03  2.288E+00  5.529E+01  5.593E-01  8.148E-01
   1   13    8     7     2    1.4863E+02  1.9168E+00   1.4672E+02  0.000E+00  0.000E+00  0.000E+00  1.03478E+03  2.279E+00  5.526E+01  6.148E-01  1.039E+00
   1   13    7     7     3    1.4672E+02  1.5828E+00   1.4513E+02  0.000E+00  0.000E+00  0.000E+00  1.02969E+03  2.270E+00  5.521E+01  5.584E-01  9.448E-01
   1   13    6     8     1    1.6039E+02  9.6502E-01   1.5943E+02  0.000E+00  0.000E+00  0.000E+00  1.02476E+03  2.885E+00  4.184E+01  4.263E-01  7.545E-01
   1   13    5     8     2    1.5943E+02  2.1377E-01   1.5922E+02  0.000E+00  0.000E+00  0.000E+00  1.01851E+03  2.881E+00  4.178E+01  4.257E-01  1.674E-01
   1   13    4     8     3    1.5922E+02 -2.3929E+00   1.6161E+02  0.000E+00  0.000E+00  0.000E+00  1.01226E+03  2.889E+00  4.189E+01  4.268E+00 -1.869E-01
   1   13    3     8     4    1.6161E+02 -3.6815E+00   1.6529E+02  0.000E+00  0.000E+00  0.000E+00  1.00603E+03  2.909E+00  4.218E+01  4.298E+00 -2.855E-01
   1   13    2     8     5    1.6529E+02 -2.6949E+00   1.6799E+02  0.000E+00  0.000E+00  0.000E+00  9.99805E+02  2.930E+00  4.249E+01  4.330E+00 -2.075E-01
   1   13    1     8     6    1.6799E+02 -2.0687E+00   1.7005E+02  0.000E+00  0.000E+00  0.000E+00  9.94821E+02  2.946E+00  4.271E+01  2.612E+00 -2.640E-01
   1    8    6     9     1    0.0000E+00  0.0000E+00   0.0000E+00  0.000E+00  0.000E+00  0.000E+00  1.07875E+03  0.000E+00  4.000E+00  0.000E+00  1.000E+00
   1    8    5     9     2    0.0000E+00  0.0000E+00   0.0000E+00  0.000E+00  0.000E+00  0.000E+00  1.07825E+03  0.000E+00  4.000E+00  0.000E+00  1.000E+00



 UBDSV3 SAVING "           GW ET" ON UNIT  61 AT TIME STEP  8, STRESS PERIOD   5
 UBDSV3 SAVING "    UZF RECHARGE" ON UNIT  61 AT TIME STEP  8, STRESS PERIOD   5
 UBDSV3 SAVING " SURFACE LEAKAGE" ON UNIT  61 AT TIME STEP  8, STRESS PERIOD   5
 UBDSV3 SAVING "       HORT+DUNN" ON UNIT  61 AT TIME STEP  8, STRESS PERIOD   5
 UBDSV3 SAVING "  STORAGE CHANGE" ON UNIT  61 AT TIME STEP  8, STRESS PERIOD   5


UNSATURATED ZONE PACKAGE VOLUMETRIC BUDGET FOR  TIME STEP     8 STRESS PERIOD    5
  ------------------------------------------------------------------------------



     CUMULATIVE VOLUMES      L**3       RATES FOR THIS TIME STEP      L**3/T
     ------------------                 ------------------------

           IN:                                      IN:
           ---                                      ---
        INFILTRATION =     9963544.1544          INFILTRATION =           0.8475

          OUT:                                     OUT:
          ----                                     ----
              UZF ET =     9806417.2527                UZF ET =           4.5676
        UZF RECHARGE =       73224.0000          UZF RECHARGE =       0.0000E+00

            IN - OUT =       83902.9017              IN - OUT =          -3.7201

          STORAGE:                                 STORAGE:
          --------                                 --------
      STORAGE CHANGE =       83900.2867        STORAGE CHANGE =          -3.7201

 PERCENT DISCREPANCY IS DIFFERENCE BETWEEN IN-OUT MINUS CHANGE IN STORAGE
 DIVIDED BY THE AVERAGE OF IN AND OUT TIMES 100

 PERCENT DISCREPANCY =           0.00     PERCENT DISCREPANCY =           0.00






 

            AG WELLS      PERIOD    5   STEP   8
 AG WELL      1   LAYER   1   ROW     6   COL     4   RATE     0.00000    
 AG WELL      2   LAYER   1   ROW     6   COL     5   RATE     0.00000    
 AG WELL      3   LAYER   1   ROW     7   COL     4   RATE     0.00000    
 AG WELL      4   LAYER   1   ROW     7   COL     5   RATE     0.00000    
 AG WELL      5   LAYER   1   ROW     8   COL     4   RATE     0.00000    
 AG WELL      6   LAYER   1   ROW     8   COL     5   RATE     0.00000    
 
 

   DIVERSION SEGMENTS     PERIOD    5   STEP   8
 SEGMENT      9   RATE     0.00000    
 
 

        SW IRRIGATION     PERIOD    5   STEP   8
 SEGMENT      9   ROW     6   COL     4   RATE     0.00000    
 SEGMENT      9   ROW     6   COL     5   RATE     0.00000    
 SEGMENT      9   ROW     7   COL     4   RATE     0.00000    
 SEGMENT      9   ROW     7   COL     5   RATE     0.00000    
 SEGMENT      9   ROW     8   COL     4   RATE     0.00000    
 SEGMENT      9   ROW     8   COL     5   RATE     0.00000    
 
 

        GW IRRIGATION     PERIOD    5   STEP   8
 AG WELL      1   ROW     6   COL     4   RATE     0.00000    
 AG WELL      2   ROW     6   COL     5   RATE     0.00000    
 AG WELL      3   ROW     7   COL     4   RATE     0.00000    
 AG WELL      4   ROW     7   COL     5   RATE     0.00000    
 AG WELL      5   ROW     8   COL     4   RATE     0.00000    
 AG WELL      6   ROW     8   COL     5   RATE     0.00000    
 
1
  VOLUMETRIC BUDGET FOR AGRICULTURAL FIELDS AT  END OF TIME STEP    8, STRESS PERIOD   5
  ------------------------------------------------------------------------------

     CUMULATIVE VOLUMES      L**3       RATES FOR THIS TIME STEP      L**3/T
     ------------------                 ------------------------

           IN:                                      IN:
           ---                                      ---
               AG WELLS  =      295994.4062                 AG WELLS  =           0.0000
      DIVERSION SEGMENTS =     2313125.0000        DIVERSION SEGMENTS =           0.0000
           GW IRRIGATION =           0.0000             GW IRRIGATION =           0.0000
           SW IRRIGATION =           0.0000             SW IRRIGATION =           0.0000
        SYSTEM LOSSES GW =           0.0000          SYSTEM LOSSES GW =           0.0000
        SYSTEM LOSSES SW =           0.0000          SYSTEM LOSSES SW =           0.0000

                TOTAL IN =     2609119.5000                  TOTAL IN =           0.0000

          OUT:                                     OUT:
          ----                                     ----
               AG WELLS  =           0.0000                 AG WELLS  =           0.0000
      DIVERSION SEGMENTS =           0.0000        DIVERSION SEGMENTS =           0.0000
           GW IRRIGATION =      295994.4062             GW IRRIGATION =           0.0000
           SW IRRIGATION =     2313171.5000             SW IRRIGATION =           0.0000
        SYSTEM LOSSES GW =           0.0000          SYSTEM LOSSES GW =           0.0000
        SYSTEM LOSSES SW =           0.0000          SYSTEM LOSSES SW =           0.0000

               TOTAL OUT =     2609166.0000                 TOTAL OUT =           0.0000

                IN - OUT =         -46.5000                  IN - OUT =           0.0000

     PERCENT DISCREPANCY =          -0.00         PERCENT DISCREPANCY =           0.00



1
  VOLUMETRIC BUDGET FOR ENTIRE MODEL AT END OF TIME STEP    8, STRESS PERIOD   5
  ------------------------------------------------------------------------------

     CUMULATIVE VOLUMES      L**3       RATES FOR THIS TIME STEP      L**3/T
     ------------------                 ------------------------

           IN:                                      IN:
           ---                                      ---
             STORAGE     =     5608124.0000               STORAGE     =           1.0069
       CONSTANT HEAD     =           0.0000         CONSTANT HEAD     =           0.0000
     HEAD DEP BOUNDS     =     2497686.0000       HEAD DEP BOUNDS     =           0.2879
      STREAM LEAKAGE     =   101334648.0000        STREAM LEAKAGE     =          11.2929
        UZF RECHARGE     =       73223.9531          UZF RECHARGE     =           0.0000
               GW ET     =           0.0000                 GW ET     =           0.0000
     SURFACE LEAKAGE     =           0.0000       SURFACE LEAKAGE     =           0.0000
           AG WELLS      =           0.0000             AG WELLS      =           0.0000

                TOTAL IN =   109513680.0000                  TOTAL IN =          12.5877

          OUT:                                     OUT:
          ----                                     ----
             STORAGE     =    18502428.0000               STORAGE     =           1.4516
       CONSTANT HEAD     =           0.0000         CONSTANT HEAD     =           0.0000
     HEAD DEP BOUNDS     =     2500833.2500       HEAD DEP BOUNDS     =           0.2893
      STREAM LEAKAGE     =    88218184.0000        STREAM LEAKAGE     =          10.8469
        UZF RECHARGE     =           0.0000          UZF RECHARGE     =           0.0000
               GW ET     =           0.0000                 GW ET     =           0.0000
     SURFACE LEAKAGE     =           0.0000       SURFACE LEAKAGE     =           0.0000
           AG WELLS      =      295994.4062             AG WELLS      =           0.0000

               TOTAL OUT =   109517440.0000                 TOTAL OUT =          12.5879

                IN - OUT =       -3760.0000                  IN - OUT =      -1.2302E-04

     PERCENT DISCREPANCY =          -0.00         PERCENT DISCREPANCY =          -0.00






         TIME SUMMARY AT END OF TIME STEP    8 IN STRESS PERIOD    5
                    SECONDS     MINUTES      HOURS       DAYS        YEARS
                    -----------------------------------------------------------
   TIME STEP LENGTH  87667.      1461.1      24.352      1.0147     2.77799E-03
 STRESS PERIOD TIME 7.01333E+05  11689.      194.81      8.1173     2.22239E-02
         TOTAL TIME 8.67773E+06 1.44629E+05  2410.5      100.44     0.27498    
1
 
 SOLVING FOR HEAD 
                                                   Max.-Head-Change                         Max.-Flux-Residual
  Residual-Control   Outer-Iter.   Inner-Iter.     Column Row Layer    Maximum-Head-Change  Column Row Layer    Maximum-Flux-Residual          L2-NORM 
          0                 1           2             2   13     1      -0.2698292989E-02       2   13    1        -0.1514618726E+00      0.3686381827E+00
          0                 2           2             4    7     1      -0.1159996441E-01       5    6    1        -0.6262497297E+00      0.1534156166E+01
          0                 3           2             4    7     1       0.9472218272E-02       5    6    1         0.5231628708E+00      0.1285166714E+01
          0                 4           2             4    7     1      -0.3769098981E-03       5    6    1        -0.2139741668E-01      0.5328616964E-01
          0                 5           1             4   13     1      -0.6403140813E-05       4   13    1        -0.3869101038E-03      0.9243140783E-03

    ------------------------------------------------
       NWT REQUIRED            5 OUTER ITERATIONS 
       AND A TOTAL OF          9 INNER ITERATIONS.
    ------------------------------------------------

 OUTPUT CONTROL FOR STRESS PERIOD    5   TIME STEP    9
    PRINT BUDGET
    SAVE BUDGET
 UBDSV1 SAVING "         STORAGE" ON UNIT 102 AT TIME STEP  9, STRESS PERIOD   5
 UBDSV2 SAVING "   CONSTANT HEAD" ON UNIT 102 AT TIME STEP  9, STRESS PERIOD   5
 UBDSV1 SAVING "FLOW RIGHT FACE " ON UNIT 102 AT TIME STEP  9, STRESS PERIOD   5
 UBDSV1 SAVING "FLOW FRONT FACE " ON UNIT 102 AT TIME STEP  9, STRESS PERIOD   5

  HEAD DEP BOUNDS   PERIOD    5   STEP     9
 BOUNDARY      1   LAYER   1   ROW    13   COL     1   RATE   -0.289175    
 BOUNDARY      2   LAYER   1   ROW    14   COL     9   RATE    0.287889    



 STREAM LISTING     PERIOD      5   STEP        9

 LAYER ROW COL. STREAM  RCH.  FLOW INTO     FLOW TO   FLOW OUT OF   OVRLND.     DIRECT     STREAM       STREAM     STREAM     STREAM   STREAMBED  STREAMBED
                SEG.NO.  NO.  STRM. RCH.    AQUIFER    STRM. RCH.    RUNOFF     PRECIP       ET          HEAD       DEPTH      WIDTH   CONDCTNC.   GRADIENT

   1    1    1     1     1    1.0500E+01  1.5271E-01   1.0347E+01  0.000E+00  0.000E+00  0.000E+00  1.09396E+03  9.109E-01  8.677E+00  3.905E-02  1.304E+00
   1    2    2     1     2    1.0347E+01  2.3505E-01   1.0112E+01  0.000E+00  0.000E+00  0.000E+00  1.08896E+03  9.059E-01  8.597E+00  6.018E-02  1.302E+00
   1    3    3     1     3    1.0112E+01  1.9904E-01   9.9132E+00  0.000E+00  0.000E+00  0.000E+00  1.08332E+03  9.003E-01  8.505E+00  5.103E-02  1.300E+00
   1    3    4     1     4    9.9132E+00  1.8195E-01   9.7313E+00  0.000E+00  0.000E+00  0.000E+00  1.07830E+03  8.947E-01  8.417E+00  4.672E-02  1.298E+00
   1    4    5     2     1    7.7313E+00  2.8007E-01   7.4512E+00  0.000E+00  0.000E+00  0.000E+00  1.07252E+03  5.907E-01  1.200E+01  7.800E-02  1.197E+00
   1    5    6     2     2    7.4512E+00  2.1474E-01   7.2365E+00  0.000E+00  0.000E+00  0.000E+00  1.06709E+03  5.790E-01  1.200E+01  6.000E-02  1.193E+00
   1    6    6     2     3    7.2365E+00  2.1413E-01   7.0224E+00  0.000E+00  0.000E+00  0.000E+00  1.06236E+03  5.688E-01  1.200E+01  6.000E-02  1.190E+00
   1    7    6     2     4    7.0224E+00  2.1351E-01   6.8088E+00  0.000E+00  0.000E+00  0.000E+00  1.05763E+03  5.585E-01  1.200E+01  6.000E-02  1.186E+00
   1    8    6     2     5    6.8088E+00  2.1289E-01   6.5960E+00  0.000E+00  0.000E+00  0.000E+00  1.05291E+03  5.481E-01  1.200E+01  6.000E-02  1.183E+00
   1    3    5     3     1    2.0000E+00  2.8252E-01   1.7175E+00  0.000E+00  0.000E+00  0.000E+00  1.07555E+03  1.909E+00  9.636E+00  7.227E-02  1.955E+00
   1    3    6     3     2    1.7175E+00  2.4905E-01   1.4684E+00  0.000E+00  0.000E+00  0.000E+00  1.07264E+03  1.727E+00  8.909E+00  6.682E-02  1.864E+00
   1    3    7     3     3    1.4684E+00  1.9718E-01   1.2712E+00  0.000E+00  0.000E+00  0.000E+00  1.06987E+03  1.555E+00  8.218E+00  5.547E-02  1.777E+00
   1    4    8     3     4    1.2712E+00  2.2567E-01   1.0456E+00  0.000E+00  0.000E+00  0.000E+00  1.06682E+03  1.364E+00  7.455E+00  6.709E-02  1.682E+00
   1    5    8     3     5    1.0456E+00  1.5790E-01   8.8768E-01  0.000E+00  0.000E+00  0.000E+00  1.06362E+03  1.164E+00  6.655E+00  4.991E-02  1.582E+00
   1    6    8     3     6    8.8768E-01  5.5980E-02   8.3170E-01  0.000E+00  0.000E+00  0.000E+00  1.06158E+03  1.036E+00  6.145E+00  1.844E-02  1.518E+00
   1    5   10     4     1    1.0000E+01  9.0919E-02   9.9091E+00  0.000E+00  0.000E+00  0.000E+00  1.07836E+03  6.368E-01  1.000E+01  2.500E-02  1.212E+00
   1    5    9     4     2    9.9091E+00  1.8158E-01   9.7275E+00  0.000E+00  0.000E+00  0.000E+00  1.07154E+03  6.315E-01  1.000E+01  5.000E-02  1.211E+00
   1    6    8     4     3    9.7275E+00  1.2689E-01   9.6006E+00  0.000E+00  0.000E+00  0.000E+00  1.06381E+03  6.256E-01  1.000E+01  3.500E-02  1.209E+00
   1    6    8     5     1    1.0432E+01  2.2686E-01   1.0205E+01  0.000E+00  0.000E+00  0.000E+00  1.05868E+03  6.790E-01  1.542E+01  6.166E-02  1.226E+00
   1    7    7     5     2    1.0205E+01  2.7894E-01   9.9265E+00  0.000E+00  0.000E+00  0.000E+00  1.05417E+03  6.732E-01  1.519E+01  7.594E-02  1.224E+00
   1    8    7     5     3    9.9265E+00  1.9221E-01   9.7343E+00  0.000E+00  0.000E+00  0.000E+00  1.04992E+03  6.676E-01  1.497E+01  5.241E-02  1.223E+00
   1    8    6     5     4    9.7343E+00  1.3577E-01   9.5985E+00  0.000E+00  0.000E+00  0.000E+00  1.04691E+03  6.637E-01  1.482E+01  3.706E-02  1.221E+00
   1    9    6     6     1    9.5985E+00  2.2097E-01   9.3776E+00  0.000E+00  0.000E+00  0.000E+00  1.04341E+03  6.828E-01  1.200E+01  6.000E-02  1.228E+00
   1   10    7     6     2    9.3776E+00  2.2039E-01   9.1572E+00  0.000E+00  0.000E+00  0.000E+00  1.03885E+03  6.732E-01  1.200E+01  6.000E-02  1.224E+00
   1   11    7     6     3    9.1572E+00  2.1981E-01   8.9374E+00  0.000E+00  0.000E+00  0.000E+00  1.03430E+03  6.636E-01  1.200E+01  6.000E-02  1.221E+00
   1   12    7     6     4    8.9374E+00  2.1923E-01   8.7181E+00  0.000E+00  0.000E+00  0.000E+00  1.02974E+03  6.539E-01  1.200E+01  6.000E-02  1.218E+00
   1   13    7     6     5    8.7181E+00 -7.0517E-02   8.7886E+00  0.000E+00  0.000E+00  0.000E+00  1.02656E+03  6.505E-01  1.200E+01  2.400E-01 -9.794E-02
   1   14    9     7     1    1.5000E+02  1.3671E+00   1.4863E+02  0.000E+00  0.000E+00  0.000E+00  1.03987E+03  2.288E+00  5.529E+01  5.593E-01  8.148E-01
   1   13    8     7     2    1.4863E+02  1.9168E+00   1.4672E+02  0.000E+00  0.000E+00  0.000E+00  1.03478E+03  2.279E+00  5.526E+01  6.148E-01  1.039E+00
   1   13    7     7     3    1.4672E+02  1.5833E+00   1.4513E+02  0.000E+00  0.000E+00  0.000E+00  1.02969E+03  2.270E+00  5.521E+01  5.584E-01  9.452E-01
   1   13    6     8     1    1.5392E+02  9.3210E-01   1.5299E+02  0.000E+00  0.000E+00  0.000E+00  1.02472E+03  2.841E+00  4.119E+01  4.198E-01  7.401E-01
   1   13    5     8     2    1.5299E+02  1.9237E-01   1.5280E+02  0.000E+00  0.000E+00  0.000E+00  1.01846E+03  2.837E+00  4.114E+01  4.192E-01  1.530E-01
   1   13    4     8     3    1.5280E+02 -2.5211E+00   1.5532E+02  0.000E+00  0.000E+00  0.000E+00  1.01222E+03  2.845E+00  4.126E+01  4.204E+00 -1.999E-01
   1   13    3     8     4    1.5532E+02 -3.7890E+00   1.5911E+02  0.000E+00  0.000E+00  0.000E+00  1.00599E+03  2.867E+00  4.157E+01  4.236E+00 -2.982E-01
   1   13    2     8     5    1.5911E+02 -2.8118E+00   1.6192E+02  0.000E+00  0.000E+00  0.000E+00  9.99764E+02  2.889E+00  4.190E+01  4.269E+00 -2.195E-01
   1   13    1     8     6    1.6192E+02 -2.1356E+00   1.6405E+02  0.000E+00  0.000E+00  0.000E+00  9.94781E+02  2.906E+00  4.214E+01  2.576E+00 -2.763E-01
   1    8    6     9     1    6.5960E+00  0.0000E+00   6.5960E+00  0.000E+00  0.000E+00  0.000E+00  1.08052E+03  1.765E+00  4.000E+00  0.000E+00  1.588E+00
   1    8    5     9     2    6.5960E+00  0.0000E+00   6.5960E+00  0.000E+00  0.000E+00  0.000E+00  1.08002E+03  1.765E+00  4.000E+00  0.000E+00  1.588E+00



 UBDSV3 SAVING "           GW ET" ON UNIT  61 AT TIME STEP  9, STRESS PERIOD   5
 UBDSV3 SAVING "    UZF RECHARGE" ON UNIT  61 AT TIME STEP  9, STRESS PERIOD   5
 UBDSV3 SAVING " SURFACE LEAKAGE" ON UNIT  61 AT TIME STEP  9, STRESS PERIOD   5
 UBDSV3 SAVING "       HORT+DUNN" ON UNIT  61 AT TIME STEP  9, STRESS PERIOD   5
 UBDSV3 SAVING "  STORAGE CHANGE" ON UNIT  61 AT TIME STEP  9, STRESS PERIOD   5


UNSATURATED ZONE PACKAGE VOLUMETRIC BUDGET FOR  TIME STEP     9 STRESS PERIOD    5
  ------------------------------------------------------------------------------



     CUMULATIVE VOLUMES      L**3       RATES FOR THIS TIME STEP      L**3/T
     ------------------                 ------------------------

           IN:                                      IN:
           ---                                      ---
        INFILTRATION =    10690093.1815          INFILTRATION =           8.2876

          OUT:                                     OUT:
          ----                                     ----
              UZF ET =    10206834.7329                UZF ET =           4.5675
        UZF RECHARGE =       73224.0000          UZF RECHARGE =       0.0000E+00

            IN - OUT =      410034.4485              IN - OUT =           3.7201

          STORAGE:                                 STORAGE:
          --------                                 --------
      STORAGE CHANGE =      410031.8210        STORAGE CHANGE =           3.7201

 PERCENT DISCREPANCY IS DIFFERENCE BETWEEN IN-OUT MINUS CHANGE IN STORAGE
 DIVIDED BY THE AVERAGE OF IN AND OUT TIMES 100

 PERCENT DISCREPANCY =           0.00     PERCENT DISCREPANCY =           0.00






 

            AG WELLS      PERIOD    5   STEP   9
 AG WELL      1   LAYER   1   ROW     6   COL     4   RATE   -0.140675    
 AG WELL      2   LAYER   1   ROW     6   COL     5   RATE   -0.140675    
 AG WELL      3   LAYER   1   ROW     7   COL     4   RATE   -0.140675    
 AG WELL      4   LAYER   1   ROW     7   COL     5   RATE   -0.140675    
 AG WELL      5   LAYER   1   ROW     8   COL     4   RATE   -0.140675    
 AG WELL      6   LAYER   1   ROW     8   COL     5   RATE   -0.140675    
 
 

   DIVERSION SEGMENTS     PERIOD    5   STEP   9
 SEGMENT      9   RATE     6.59595    
 
 

        SW IRRIGATION     PERIOD    5   STEP   9
 SEGMENT      9   ROW     6   COL     4   RATE     1.09935    
 SEGMENT      9   ROW     6   COL     5   RATE     1.09935    
 SEGMENT      9   ROW     7   COL     4   RATE     1.09935    
 SEGMENT      9   ROW     7   COL     5   RATE     1.09935    
 SEGMENT      9   ROW     8   COL     4   RATE     1.09935    
 SEGMENT      9   ROW     8   COL     5   RATE     1.09935    
 
 

        GW IRRIGATION     PERIOD    5   STEP   9
 AG WELL      1   ROW     6   COL     4   RATE    0.140675    
 AG WELL      2   ROW     6   COL     5   RATE    0.140675    
 AG WELL      3   ROW     7   COL     4   RATE    0.140675    
 AG WELL      4   ROW     7   COL     5   RATE    0.140675    
 AG WELL      5   ROW     8   COL     4   RATE    0.140675    
 AG WELL      6   ROW     8   COL     5   RATE    0.140675    
 
1
  VOLUMETRIC BUDGET FOR AGRICULTURAL FIELDS AT  END OF TIME STEP    9, STRESS PERIOD   5
  ------------------------------------------------------------------------------

     CUMULATIVE VOLUMES      L**3       RATES FOR THIS TIME STEP      L**3/T
     ------------------                 ------------------------

           IN:                                      IN:
           ---                                      ---
               AG WELLS  =      369989.2500                 AG WELLS  =           0.8440
      DIVERSION SEGMENTS =     2891370.0000        DIVERSION SEGMENTS =           6.5960
           GW IRRIGATION =           0.0000             GW IRRIGATION =           0.0000
           SW IRRIGATION =           0.0000             SW IRRIGATION =           0.0000
        SYSTEM LOSSES GW =           0.0000          SYSTEM LOSSES GW =           0.0000
        SYSTEM LOSSES SW =           0.0000          SYSTEM LOSSES SW =           0.0000

                TOTAL IN =     3261359.2500                  TOTAL IN =           7.4400

          OUT:                                     OUT:
          ----                                     ----
               AG WELLS  =           0.0000                 AG WELLS  =           0.0000
      DIVERSION SEGMENTS =           0.0000        DIVERSION SEGMENTS =           0.0000
           GW IRRIGATION =      369989.2500             GW IRRIGATION =           0.8440
           SW IRRIGATION =     2891428.2500             SW IRRIGATION =           6.5961
        SYSTEM LOSSES GW =           0.0000          SYSTEM LOSSES GW =           0.0000
        SYSTEM LOSSES SW =           0.0000          SYSTEM LOSSES SW =           0.0000

               TOTAL OUT =     3261417.5000                 TOTAL OUT =           7.4401

                IN - OUT =         -58.2500                  IN - OUT =      -1.3161E-04

     PERCENT DISCREPANCY =          -0.00         PERCENT DISCREPANCY =          -0.00



1
  VOLUMETRIC BUDGET FOR ENTIRE MODEL AT END OF TIME STEP    9, STRESS PERIOD   5
  ------------------------------------------------------------------------------

     CUMULATIVE VOLUMES      L**3       RATES FOR THIS TIME STEP      L**3/T
     ------------------                 ------------------------

           IN:                                      IN:
           ---                                      ---
             STORAGE     =     5796198.5000               STORAGE     =           2.1453
       CONSTANT HEAD     =           0.0000         CONSTANT HEAD     =           0.0000
     HEAD DEP BOUNDS     =     2522924.2500       HEAD DEP BOUNDS     =           0.2879
      STREAM LEAKAGE     =   102314552.0000        STREAM LEAKAGE     =          11.1776
        UZF RECHARGE     =       73223.9531          UZF RECHARGE     =           0.0000
               GW ET     =           0.0000                 GW ET     =           0.0000
     SURFACE LEAKAGE     =           0.0000       SURFACE LEAKAGE     =           0.0000
           AG WELLS      =           0.0000             AG WELLS      =           0.0000

                TOTAL IN =   110706896.0000                  TOTAL IN =          13.6109

          OUT:                                     OUT:
          ----                                     ----
             STORAGE     =    18603206.0000               STORAGE     =           1.1496
       CONSTANT HEAD     =           0.0000         CONSTANT HEAD     =           0.0000
     HEAD DEP BOUNDS     =     2526184.2500       HEAD DEP BOUNDS     =           0.2892
      STREAM LEAKAGE     =    89211272.0000        STREAM LEAKAGE     =          11.3280
        UZF RECHARGE     =           0.0000          UZF RECHARGE     =           0.0000
               GW ET     =           0.0000                 GW ET     =           0.0000
     SURFACE LEAKAGE     =           0.0000       SURFACE LEAKAGE     =           0.0000
           AG WELLS      =      369989.2500             AG WELLS      =           0.8440

               TOTAL OUT =   110710656.0000                 TOTAL OUT =          13.6108

                IN - OUT =       -3760.0000                  IN - OUT =       8.5831E-05

     PERCENT DISCREPANCY =          -0.00         PERCENT DISCREPANCY =           0.00






         TIME SUMMARY AT END OF TIME STEP    9 IN STRESS PERIOD    5
                    SECONDS     MINUTES      HOURS       DAYS        YEARS
                    -----------------------------------------------------------
   TIME STEP LENGTH  87667.      1461.1      24.352      1.0147     2.77799E-03
 STRESS PERIOD TIME 7.89000E+05  13150.      219.17      9.1319     2.50019E-02
         TOTAL TIME 8.76540E+06 1.46090E+05  2434.8      101.45     0.27776    
1
 
 SOLVING FOR HEAD 
                                                   Max.-Head-Change                         Max.-Flux-Residual
  Residual-Control   Outer-Iter.   Inner-Iter.     Column Row Layer    Maximum-Head-Change  Column Row Layer    Maximum-Flux-Residual          L2-NORM 
          0                 1           2             2   13     1      -0.2328724993E-02       2   13    1        -0.1306808393E+00      0.3434051257E+00
          0                 2           2             2   13     1       0.2182425202E-03       2   13    1         0.1258900982E-01      0.3394747236E-01
          0                 3           1             2   13     1      -0.1409370269E-04       2   13    1        -0.8355754089E-03      0.2339305483E-02

    ------------------------------------------------
       NWT REQUIRED            3 OUTER ITERATIONS 
       AND A TOTAL OF          5 INNER ITERATIONS.
    ------------------------------------------------

 OUTPUT CONTROL FOR STRESS PERIOD    5   TIME STEP   10
    PRINT BUDGET
    SAVE BUDGET
 UBDSV1 SAVING "         STORAGE" ON UNIT 102 AT TIME STEP 10, STRESS PERIOD   5
 UBDSV2 SAVING "   CONSTANT HEAD" ON UNIT 102 AT TIME STEP 10, STRESS PERIOD   5
 UBDSV1 SAVING "FLOW RIGHT FACE " ON UNIT 102 AT TIME STEP 10, STRESS PERIOD   5
 UBDSV1 SAVING "FLOW FRONT FACE " ON UNIT 102 AT TIME STEP 10, STRESS PERIOD   5

  HEAD DEP BOUNDS   PERIOD    5   STEP    10
 BOUNDARY      1   LAYER   1   ROW    13   COL     1   RATE   -0.289111    
 BOUNDARY      2   LAYER   1   ROW    14   COL     9   RATE    0.287890    



 STREAM LISTING     PERIOD      5   STEP       10

 LAYER ROW COL. STREAM  RCH.  FLOW INTO     FLOW TO   FLOW OUT OF   OVRLND.     DIRECT     STREAM       STREAM     STREAM     STREAM   STREAMBED  STREAMBED
                SEG.NO.  NO.  STRM. RCH.    AQUIFER    STRM. RCH.    RUNOFF     PRECIP       ET          HEAD       DEPTH      WIDTH   CONDCTNC.   GRADIENT

   1    1    1     1     1    1.0500E+01  1.5271E-01   1.0347E+01  0.000E+00  0.000E+00  0.000E+00  1.09396E+03  9.109E-01  8.677E+00  3.905E-02  1.304E+00
   1    2    2     1     2    1.0347E+01  2.3505E-01   1.0112E+01  0.000E+00  0.000E+00  0.000E+00  1.08896E+03  9.059E-01  8.597E+00  6.018E-02  1.302E+00
   1    3    3     1     3    1.0112E+01  1.9904E-01   9.9132E+00  0.000E+00  0.000E+00  0.000E+00  1.08332E+03  9.003E-01  8.505E+00  5.103E-02  1.300E+00
   1    3    4     1     4    9.9132E+00  1.8195E-01   9.7313E+00  0.000E+00  0.000E+00  0.000E+00  1.07830E+03  8.947E-01  8.417E+00  4.672E-02  1.298E+00
   1    4    5     2     1    7.7313E+00  2.8007E-01   7.4512E+00  0.000E+00  0.000E+00  0.000E+00  1.07252E+03  5.907E-01  1.200E+01  7.800E-02  1.197E+00
   1    5    6     2     2    7.4512E+00  2.1474E-01   7.2365E+00  0.000E+00  0.000E+00  0.000E+00  1.06709E+03  5.790E-01  1.200E+01  6.000E-02  1.193E+00
   1    6    6     2     3    7.2365E+00  2.1413E-01   7.0224E+00  0.000E+00  0.000E+00  0.000E+00  1.06236E+03  5.688E-01  1.200E+01  6.000E-02  1.190E+00
   1    7    6     2     4    7.0224E+00  2.1351E-01   6.8088E+00  0.000E+00  0.000E+00  0.000E+00  1.05763E+03  5.585E-01  1.200E+01  6.000E-02  1.186E+00
   1    8    6     2     5    6.8088E+00  2.1289E-01   6.5960E+00  0.000E+00  0.000E+00  0.000E+00  1.05291E+03  5.481E-01  1.200E+01  6.000E-02  1.183E+00
   1    3    5     3     1    2.0000E+00  2.8252E-01   1.7175E+00  0.000E+00  0.000E+00  0.000E+00  1.07555E+03  1.909E+00  9.636E+00  7.227E-02  1.955E+00
   1    3    6     3     2    1.7175E+00  2.4905E-01   1.4684E+00  0.000E+00  0.000E+00  0.000E+00  1.07264E+03  1.727E+00  8.909E+00  6.682E-02  1.864E+00
   1    3    7     3     3    1.4684E+00  1.9718E-01   1.2712E+00  0.000E+00  0.000E+00  0.000E+00  1.06987E+03  1.555E+00  8.218E+00  5.547E-02  1.777E+00
   1    4    8     3     4    1.2712E+00  2.2567E-01   1.0456E+00  0.000E+00  0.000E+00  0.000E+00  1.06682E+03  1.364E+00  7.455E+00  6.709E-02  1.682E+00
   1    5    8     3     5    1.0456E+00  1.5790E-01   8.8768E-01  0.000E+00  0.000E+00  0.000E+00  1.06362E+03  1.164E+00  6.655E+00  4.991E-02  1.582E+00
   1    6    8     3     6    8.8768E-01  5.5980E-02   8.3170E-01  0.000E+00  0.000E+00  0.000E+00  1.06158E+03  1.036E+00  6.145E+00  1.844E-02  1.518E+00
   1    5   10     4     1    1.0000E+01  9.0919E-02   9.9091E+00  0.000E+00  0.000E+00  0.000E+00  1.07836E+03  6.368E-01  1.000E+01  2.500E-02  1.212E+00
   1    5    9     4     2    9.9091E+00  1.8158E-01   9.7275E+00  0.000E+00  0.000E+00  0.000E+00  1.07154E+03  6.315E-01  1.000E+01  5.000E-02  1.211E+00
   1    6    8     4     3    9.7275E+00  1.2689E-01   9.6006E+00  0.000E+00  0.000E+00  0.000E+00  1.06381E+03  6.256E-01  1.000E+01  3.500E-02  1.209E+00
   1    6    8     5     1    1.0432E+01  2.2686E-01   1.0205E+01  0.000E+00  0.000E+00  0.000E+00  1.05868E+03  6.790E-01  1.542E+01  6.166E-02  1.226E+00
   1    7    7     5     2    1.0205E+01  2.7894E-01   9.9265E+00  0.000E+00  0.000E+00  0.000E+00  1.05417E+03  6.732E-01  1.519E+01  7.594E-02  1.224E+00
   1    8    7     5     3    9.9265E+00  1.9221E-01   9.7343E+00  0.000E+00  0.000E+00  0.000E+00  1.04992E+03  6.676E-01  1.497E+01  5.241E-02  1.223E+00
   1    8    6     5     4    9.7343E+00  1.3577E-01   9.5985E+00  0.000E+00  0.000E+00  0.000E+00  1.04691E+03  6.637E-01  1.482E+01  3.706E-02  1.221E+00
   1    9    6     6     1    1.6194E+01  2.3621E-01   1.5958E+01  0.000E+00  0.000E+00  0.000E+00  1.04366E+03  9.369E-01  1.200E+01  6.000E-02  1.312E+00
   1   10    7     6     2    1.5958E+01  2.3572E-01   1.5723E+01  0.000E+00  0.000E+00  0.000E+00  1.03911E+03  9.286E-01  1.200E+01  6.000E-02  1.310E+00
   1   11    7     6     3    1.5723E+01  2.3522E-01   1.5487E+01  0.000E+00  0.000E+00  0.000E+00  1.03456E+03  9.203E-01  1.200E+01  6.000E-02  1.307E+00
   1   12    7     6     4    1.5487E+01  2.3472E-01   1.5253E+01  0.000E+00  0.000E+00  0.000E+00  1.03000E+03  9.120E-01  1.200E+01  6.000E-02  1.304E+00
   1   13    7     6     5    1.5253E+01 -8.7796E-03   1.5261E+01  0.000E+00  0.000E+00  0.000E+00  1.02682E+03  9.079E-01  1.200E+01  2.400E-01 -1.219E-02
   1   14    9     7     1    1.5000E+02  1.3671E+00   1.4863E+02  0.000E+00  0.000E+00  0.000E+00  1.03987E+03  2.288E+00  5.529E+01  5.593E-01  8.148E-01
   1   13    8     7     2    1.4863E+02  1.9167E+00   1.4672E+02  0.000E+00  0.000E+00  0.000E+00  1.03478E+03  2.279E+00  5.526E+01  6.148E-01  1.039E+00
   1   13    7     7     3    1.4672E+02  1.5833E+00   1.4513E+02  0.000E+00  0.000E+00  0.000E+00  1.02969E+03  2.270E+00  5.521E+01  5.584E-01  9.451E-01
   1   13    6     8     1    1.6039E+02  9.6568E-01   1.5943E+02  0.000E+00  0.000E+00  0.000E+00  1.02476E+03  2.885E+00  4.184E+01  4.263E-01  7.550E-01
   1   13    5     8     2    1.5943E+02  2.1440E-01   1.5921E+02  0.000E+00  0.000E+00  0.000E+00  1.01851E+03  2.881E+00  4.178E+01  4.257E-01  1.679E-01
   1   13    4     8     3    1.5921E+02 -2.3673E+00   1.6158E+02  0.000E+00  0.000E+00  0.000E+00  1.01226E+03  2.889E+00  4.188E+01  4.268E+00 -1.849E-01
   1   13    3     8     4    1.6158E+02 -3.6565E+00   1.6524E+02  0.000E+00  0.000E+00  0.000E+00  1.00603E+03  2.909E+00  4.218E+01  4.298E+00 -2.836E-01
   1   13    2     8     5    1.6524E+02 -2.6669E+00   1.6791E+02  0.000E+00  0.000E+00  0.000E+00  9.99805E+02  2.930E+00  4.248E+01  4.329E+00 -2.054E-01
   1   13    1     8     6    1.6791E+02 -2.0574E+00   1.6996E+02  0.000E+00  0.000E+00  0.000E+00  9.94820E+02  2.945E+00  4.271E+01  2.611E+00 -2.626E-01
   1    8    6     9     1    0.0000E+00  0.0000E+00   0.0000E+00  0.000E+00  0.000E+00  0.000E+00  1.07875E+03  0.000E+00  4.000E+00  0.000E+00  1.000E+00
   1    8    5     9     2    0.0000E+00  0.0000E+00   0.0000E+00  0.000E+00  0.000E+00  0.000E+00  1.07825E+03  0.000E+00  4.000E+00  0.000E+00  1.000E+00



 UBDSV3 SAVING "           GW ET" ON UNIT  61 AT TIME STEP 10, STRESS PERIOD   5
 UBDSV3 SAVING "    UZF RECHARGE" ON UNIT  61 AT TIME STEP 10, STRESS PERIOD   5
 UBDSV3 SAVING " SURFACE LEAKAGE" ON UNIT  61 AT TIME STEP 10, STRESS PERIOD   5
 UBDSV3 SAVING "       HORT+DUNN" ON UNIT  61 AT TIME STEP 10, STRESS PERIOD   5
 UBDSV3 SAVING "  STORAGE CHANGE" ON UNIT  61 AT TIME STEP 10, STRESS PERIOD   5


UNSATURATED ZONE PACKAGE VOLUMETRIC BUDGET FOR  TIME STEP    10 STRESS PERIOD    5
  ------------------------------------------------------------------------------



     CUMULATIVE VOLUMES      L**3       RATES FOR THIS TIME STEP      L**3/T
     ------------------                 ------------------------

           IN:                                      IN:
           ---                                      ---
        INFILTRATION =    10764390.6772          INFILTRATION =           0.8475

          OUT:                                     OUT:
          ----                                     ----
              UZF ET =    10607263.1116                UZF ET =           4.5676
        UZF RECHARGE =       73224.0000          UZF RECHARGE =       0.0000E+00

            IN - OUT =       83903.5656              IN - OUT =          -3.7201

          STORAGE:                                 STORAGE:
          --------                                 --------
      STORAGE CHANGE =       83900.2867        STORAGE CHANGE =          -3.7201

 PERCENT DISCREPANCY IS DIFFERENCE BETWEEN IN-OUT MINUS CHANGE IN STORAGE
 DIVIDED BY THE AVERAGE OF IN AND OUT TIMES 100

 PERCENT DISCREPANCY =           0.00     PERCENT DISCREPANCY =           0.00






 

            AG WELLS      PERIOD    5   STEP  10
 AG WELL      1   LAYER   1   ROW     6   COL     4   RATE     0.00000    
 AG WELL      2   LAYER   1   ROW     6   COL     5   RATE     0.00000    
 AG WELL      3   LAYER   1   ROW     7   COL     4   RATE     0.00000    
 AG WELL      4   LAYER   1   ROW     7   COL     5   RATE     0.00000    
 AG WELL      5   LAYER   1   ROW     8   COL     4   RATE     0.00000    
 AG WELL      6   LAYER   1   ROW     8   COL     5   RATE     0.00000    
 
 

   DIVERSION SEGMENTS     PERIOD    5   STEP  10
 SEGMENT      9   RATE     0.00000    
 
 

        SW IRRIGATION     PERIOD    5   STEP  10
 SEGMENT      9   ROW     6   COL     4   RATE     0.00000    
 SEGMENT      9   ROW     6   COL     5   RATE     0.00000    
 SEGMENT      9   ROW     7   COL     4   RATE     0.00000    
 SEGMENT      9   ROW     7   COL     5   RATE     0.00000    
 SEGMENT      9   ROW     8   COL     4   RATE     0.00000    
 SEGMENT      9   ROW     8   COL     5   RATE     0.00000    
 
 

        GW IRRIGATION     PERIOD    5   STEP  10
 AG WELL      1   ROW     6   COL     4   RATE     0.00000    
 AG WELL      2   ROW     6   COL     5   RATE     0.00000    
 AG WELL      3   ROW     7   COL     4   RATE     0.00000    
 AG WELL      4   ROW     7   COL     5   RATE     0.00000    
 AG WELL      5   ROW     8   COL     4   RATE     0.00000    
 AG WELL      6   ROW     8   COL     5   RATE     0.00000    
 
1
  VOLUMETRIC BUDGET FOR AGRICULTURAL FIELDS AT  END OF TIME STEP   10, STRESS PERIOD   5
  ------------------------------------------------------------------------------

     CUMULATIVE VOLUMES      L**3       RATES FOR THIS TIME STEP      L**3/T
     ------------------                 ------------------------

           IN:                                      IN:
           ---                                      ---
               AG WELLS  =      369989.2500                 AG WELLS  =           0.0000
      DIVERSION SEGMENTS =     2891370.0000        DIVERSION SEGMENTS =           0.0000
           GW IRRIGATION =           0.0000             GW IRRIGATION =           0.0000
           SW IRRIGATION =           0.0000             SW IRRIGATION =           0.0000
        SYSTEM LOSSES GW =           0.0000          SYSTEM LOSSES GW =           0.0000
        SYSTEM LOSSES SW =           0.0000          SYSTEM LOSSES SW =           0.0000

                TOTAL IN =     3261359.2500                  TOTAL IN =           0.0000

          OUT:                                     OUT:
          ----                                     ----
               AG WELLS  =           0.0000                 AG WELLS  =           0.0000
      DIVERSION SEGMENTS =           0.0000        DIVERSION SEGMENTS =           0.0000
           GW IRRIGATION =      369989.2500             GW IRRIGATION =           0.0000
           SW IRRIGATION =     2891428.2500             SW IRRIGATION =           0.0000
        SYSTEM LOSSES GW =           0.0000          SYSTEM LOSSES GW =           0.0000
        SYSTEM LOSSES SW =           0.0000          SYSTEM LOSSES SW =           0.0000

               TOTAL OUT =     3261417.5000                 TOTAL OUT =           0.0000

                IN - OUT =         -58.2500                  IN - OUT =           0.0000

     PERCENT DISCREPANCY =          -0.00         PERCENT DISCREPANCY =           0.00



1
  VOLUMETRIC BUDGET FOR ENTIRE MODEL AT END OF TIME STEP   10, STRESS PERIOD   5
  ------------------------------------------------------------------------------

     CUMULATIVE VOLUMES      L**3       RATES FOR THIS TIME STEP      L**3/T
     ------------------                 ------------------------

           IN:                                      IN:
           ---                                      ---
             STORAGE     =     5875553.5000               STORAGE     =           0.9052
       CONSTANT HEAD     =           0.0000         CONSTANT HEAD     =           0.0000
     HEAD DEP BOUNDS     =     2548162.5000       HEAD DEP BOUNDS     =           0.2879
      STREAM LEAKAGE     =   103304712.0000        STREAM LEAKAGE     =          11.2946
        UZF RECHARGE     =       73223.9531          UZF RECHARGE     =           0.0000
               GW ET     =           0.0000                 GW ET     =           0.0000
     SURFACE LEAKAGE     =           0.0000       SURFACE LEAKAGE     =           0.0000
           AG WELLS      =           0.0000             AG WELLS      =           0.0000

                TOTAL IN =   111801656.0000                  TOTAL IN =          12.4877

          OUT:                                     OUT:
          ----                                     ----
             STORAGE     =    18729598.0000               STORAGE     =           1.4417
       CONSTANT HEAD     =           0.0000         CONSTANT HEAD     =           0.0000
     HEAD DEP BOUNDS     =     2551529.7500       HEAD DEP BOUNDS     =           0.2891
      STREAM LEAKAGE     =    90154304.0000        STREAM LEAKAGE     =          10.7570
        UZF RECHARGE     =           0.0000          UZF RECHARGE     =           0.0000
               GW ET     =           0.0000                 GW ET     =           0.0000
     SURFACE LEAKAGE     =           0.0000       SURFACE LEAKAGE     =           0.0000
           AG WELLS      =      369989.2500             AG WELLS      =           0.0000

               TOTAL OUT =   111805424.0000                 TOTAL OUT =          12.4878

                IN - OUT =       -3768.0000                  IN - OUT =      -1.4877E-04

     PERCENT DISCREPANCY =          -0.00         PERCENT DISCREPANCY =          -0.00






         TIME SUMMARY AT END OF TIME STEP   10 IN STRESS PERIOD    5
                    SECONDS     MINUTES      HOURS       DAYS        YEARS
                    -----------------------------------------------------------
   TIME STEP LENGTH  87667.      1461.1      24.352      1.0147     2.77799E-03
 STRESS PERIOD TIME 8.76667E+05  14611.      243.52      10.147     2.77799E-02
         TOTAL TIME 8.85306E+06 1.47551E+05  2459.2      102.47     0.28054    
1
 
 SOLVING FOR HEAD 
                                                   Max.-Head-Change                         Max.-Flux-Residual
  Residual-Control   Outer-Iter.   Inner-Iter.     Column Row Layer    Maximum-Head-Change  Column Row Layer    Maximum-Flux-Residual          L2-NORM 
          0                 1           2             2   13     1      -0.2161064499E-02       2   13    1        -0.1212576956E+00      0.3320391289E+00
          0                 2           2             4    7     1      -0.1160254416E-01       5    6    1        -0.6264132831E+00      0.1535002208E+01
          0                 3           2             4    7     1       0.9472394587E-02       5    6    1         0.5231743196E+00      0.1285173664E+01
          0                 4           2             4    7     1      -0.3769169135E-03       5    6    1        -0.2139788494E-01      0.5328228256E-01
          0                 5           1             4   13     1      -0.6384924782E-05       4   13    1        -0.3858020254E-03      0.9234866492E-03

    ------------------------------------------------
       NWT REQUIRED            5 OUTER ITERATIONS 
       AND A TOTAL OF          9 INNER ITERATIONS.
    ------------------------------------------------

 NO OUTPUT CONTROL FOR STRESS PERIOD    5   TIME STEP   11
 
 SOLVING FOR HEAD 
                                                   Max.-Head-Change                         Max.-Flux-Residual
  Residual-Control   Outer-Iter.   Inner-Iter.     Column Row Layer    Maximum-Head-Change  Column Row Layer    Maximum-Flux-Residual          L2-NORM 
          0                 1           2             2   13     1      -0.1830401359E-02       2   13    1        -0.1026662708E+00      0.3130897483E+00
          0                 2           2             2   13     1       0.1718247370E-03       2   13    1         0.9906513338E-02      0.3104880273E-01
          0                 3           1             2   13     1      -0.1111257575E-04       2   13    1        -0.6584780622E-03      0.2148793395E-02

    ------------------------------------------------
       NWT REQUIRED            3 OUTER ITERATIONS 
       AND A TOTAL OF          5 INNER ITERATIONS.
    ------------------------------------------------

 NO OUTPUT CONTROL FOR STRESS PERIOD    5   TIME STEP   12
 
 SOLVING FOR HEAD 
                                                   Max.-Head-Change                         Max.-Flux-Residual
  Residual-Control   Outer-Iter.   Inner-Iter.     Column Row Layer    Maximum-Head-Change  Column Row Layer    Maximum-Flux-Residual          L2-NORM 
          0                 1           2             2   13     1      -0.1699265617E-02       2   13    1        -0.9529845672E-01      0.3052179775E+00
          0                 2           2             4    7     1      -0.1160512032E-01       5    6    1        -0.6265613981E+00      0.1535773496E+01
          0                 3           2             4    7     1       0.9472570650E-02       5    6    1         0.5231846878E+00      0.1285182362E+01
          0                 4           2             4    7     1      -0.3769239193E-03       5    6    1        -0.2139830899E-01      0.5327920995E-01
          0                 5           1             4   13     1      -0.6362200006E-05       4   13    1        -0.3844165831E-03      0.9221876634E-03

    ------------------------------------------------
       NWT REQUIRED            5 OUTER ITERATIONS 
       AND A TOTAL OF          9 INNER ITERATIONS.
    ------------------------------------------------

 NO OUTPUT CONTROL FOR STRESS PERIOD    5   TIME STEP   13
 
 SOLVING FOR HEAD 
                                                   Max.-Head-Change                         Max.-Flux-Residual
  Residual-Control   Outer-Iter.   Inner-Iter.     Column Row Layer    Maximum-Head-Change  Column Row Layer    Maximum-Flux-Residual          L2-NORM 
          0                 1           2             1   13     1      -0.1456062134E-02       1   13    1        -0.7913908148E-01      0.2916469270E+00
          0                 2           2             3    2     1      -0.1416256562E-03       1   13    1         0.7710684725E-02      0.2900503033E-01
          0                 3           1             3    2     1       0.9644193469E-05       3    2    1         0.5314565899E-03      0.2015467522E-02

    ------------------------------------------------
       NWT REQUIRED            3 OUTER ITERATIONS 
       AND A TOTAL OF          5 INNER ITERATIONS.
    ------------------------------------------------

 NO OUTPUT CONTROL FOR STRESS PERIOD    5   TIME STEP   14
 
 SOLVING FOR HEAD 
                                                   Max.-Head-Change                         Max.-Flux-Residual
  Residual-Control   Outer-Iter.   Inner-Iter.     Column Row Layer    Maximum-Head-Change  Column Row Layer    Maximum-Flux-Residual          L2-NORM 
          0                 1           2             3    2     1       0.1448696391E-02       1   13    1        -0.7570861094E-01      0.2862712230E+00
          0                 2           2             4    7     1      -0.1160767998E-01       5    6    1        -0.6266964334E+00      0.1536476308E+01
          0                 3           2             4    7     1       0.9472745578E-02       5    6    1         0.5231941403E+00      0.1285192155E+01
          0                 4           2             4    7     1      -0.3769308796E-03       5    6    1        -0.2139869558E-01      0.5327665841E-01
          0                 5           1             4   13     1      -0.6345606843E-05       4   13    1        -0.3834131330E-03      0.9214799253E-03

    ------------------------------------------------
       NWT REQUIRED            5 OUTER ITERATIONS 
       AND A TOTAL OF          9 INNER ITERATIONS.
    ------------------------------------------------

 NO OUTPUT CONTROL FOR STRESS PERIOD    5   TIME STEP   15
 
 SOLVING FOR HEAD 
                                                   Max.-Head-Change                         Max.-Flux-Residual
  Residual-Control   Outer-Iter.   Inner-Iter.     Column Row Layer    Maximum-Head-Change  Column Row Layer    Maximum-Flux-Residual          L2-NORM 
          0                 1           2             3    2     1       0.1441550283E-02       3    2    1         0.7516250185E-01      0.2771773023E+00
          0                 2           2             3    2     1      -0.1402236024E-03       3    2    1        -0.7516254857E-02      0.2762894771E-01
          0                 3           1             3    2     1       0.9548719708E-05       3    2    1         0.5261380186E-03      0.1926003761E-02

    ------------------------------------------------
       NWT REQUIRED            3 OUTER ITERATIONS 
       AND A TOTAL OF          5 INNER ITERATIONS.
    ------------------------------------------------

 NO OUTPUT CONTROL FOR STRESS PERIOD    5   TIME STEP   16
 
 SOLVING FOR HEAD 
                                                   Max.-Head-Change                         Max.-Flux-Residual
  Residual-Control   Outer-Iter.   Inner-Iter.     Column Row Layer    Maximum-Head-Change  Column Row Layer    Maximum-Flux-Residual          L2-NORM 
          0                 1           2             3    2     1       0.1434519069E-02       3    2    1         0.7479186172E-01      0.2734647730E+00
          0                 2           2             4    7     1      -0.1161023710E-01       5    6    1        -0.6268169282E+00      0.1537115674E+01
          0                 3           2             4    7     1       0.9472920325E-02       5    6    1         0.5232025750E+00      0.1285202882E+01
          0                 4           2             4    7     1      -0.3769378331E-03       5    6    1        -0.2139904055E-01      0.5327454554E-01
          0                 5           1             4   13     1      -0.6334217652E-05       4   13    1        -0.3827271366E-03      0.9203136219E-03

    ------------------------------------------------
       NWT REQUIRED            5 OUTER ITERATIONS 
       AND A TOTAL OF          9 INNER ITERATIONS.
    ------------------------------------------------

 NO OUTPUT CONTROL FOR STRESS PERIOD    5   TIME STEP   17
 
 SOLVING FOR HEAD 
                                                   Max.-Head-Change                         Max.-Flux-Residual
  Residual-Control   Outer-Iter.   Inner-Iter.     Column Row Layer    Maximum-Head-Change  Column Row Layer    Maximum-Flux-Residual          L2-NORM 
          0                 1           2             3    2     1       0.1427520350E-02       3    2    1         0.7442299921E-01      0.2680030745E+00
          0                 2           2             3    2     1      -0.1388588702E-03       3    2    1        -0.7442304443E-02      0.2675821666E-01
          0                 3           1             3    2     1       0.9455787108E-05       3    2    1         0.5209614920E-03      0.1869359471E-02

    ------------------------------------------------
       NWT REQUIRED            3 OUTER ITERATIONS 
       AND A TOTAL OF          5 INNER ITERATIONS.
    ------------------------------------------------

 NO OUTPUT CONTROL FOR STRESS PERIOD    5   TIME STEP   18
 
 SOLVING FOR HEAD 
                                                   Max.-Head-Change                         Max.-Flux-Residual
  Residual-Control   Outer-Iter.   Inner-Iter.     Column Row Layer    Maximum-Head-Change  Column Row Layer    Maximum-Flux-Residual          L2-NORM 
          0                 1           2             3    2     1       0.1420717481E-02       3    2    1         0.7406442414E-01      0.2652798543E+00
          0                 2           2             4    7     1      -0.1161275594E-01       5    6    1        -0.6269279436E+00      0.1537698501E+01
          0                 3           2             4    7     1       0.9473092452E-02       5    6    1         0.5232103462E+00      0.1285214338E+01
          0                 4           2             4    7     1      -0.3769446823E-03       5    6    1        -0.2139935840E-01      0.5327284963E-01
          0                 5           1             4   13     1      -0.6323463455E-05       4   13    1        -0.3821104528E-03      0.9204560122E-03

    ------------------------------------------------
       NWT REQUIRED            5 OUTER ITERATIONS 
       AND A TOTAL OF          9 INNER ITERATIONS.
    ------------------------------------------------

 NO OUTPUT CONTROL FOR STRESS PERIOD    5   TIME STEP   19
 
 SOLVING FOR HEAD 
                                                   Max.-Head-Change                         Max.-Flux-Residual
  Residual-Control   Outer-Iter.   Inner-Iter.     Column Row Layer    Maximum-Head-Change  Column Row Layer    Maximum-Flux-Residual          L2-NORM 
          0                 1           2             3    2     1       0.1414028210E-02       3    2    1         0.7371181725E-01      0.2626743130E+00
          0                 2           2             3    2     1      -0.1375464507E-03       3    2    1        -0.7371186094E-02      0.2625238897E-01
          0                 3           1             3    2     1       0.9366416914E-05       3    2    1         0.5159832143E-03      0.1836277600E-02

    ------------------------------------------------
       NWT REQUIRED            3 OUTER ITERATIONS 
       AND A TOTAL OF          5 INNER ITERATIONS.
    ------------------------------------------------

 NO OUTPUT CONTROL FOR STRESS PERIOD    5   TIME STEP   20
 
 SOLVING FOR HEAD 
                                                   Max.-Head-Change                         Max.-Flux-Residual
  Residual-Control   Outer-Iter.   Inner-Iter.     Column Row Layer    Maximum-Head-Change  Column Row Layer    Maximum-Flux-Residual          L2-NORM 
          0                 1           2             3    2     1       0.1407360947E-02       3    2    1         0.7336045085E-01      0.2604501922E+00
          0                 2           2             4    7     1      -0.1161525500E-01       5    6    1        -0.6270291377E+00      0.1538230264E+01
          0                 3           2             4    7     1       0.9473263222E-02       5    6    1         0.5232174298E+00      0.1285336696E+01
          0                 4           2             4    7     1      -0.3769514774E-03       5    6    1        -0.2139964812E-01      0.5313571496E-01
          0                 5           1             2   13     1      -0.5614118513E-05       2   13    1        -0.3327666218E-03      0.8550849588E-03

    ------------------------------------------------
       NWT REQUIRED            5 OUTER ITERATIONS 
       AND A TOTAL OF          9 INNER ITERATIONS.
    ------------------------------------------------

 NO OUTPUT CONTROL FOR STRESS PERIOD    5   TIME STEP   21
 
 SOLVING FOR HEAD 
                                                   Max.-Head-Change                         Max.-Flux-Residual
  Residual-Control   Outer-Iter.   Inner-Iter.     Column Row Layer    Maximum-Head-Change  Column Row Layer    Maximum-Flux-Residual          L2-NORM 
          0                 1           2             3    2     1       0.1400887255E-02       3    2    1         0.7301929144E-01      0.2600426194E+00
          0                 2           2             3    2     1      -0.1362681916E-03       3    2    1        -0.7301933357E-02      0.2600144927E-01
          0                 3           1             3    2     1       0.9279372508E-05       3    2    1         0.5111355109E-03      0.1819884334E-02

    ------------------------------------------------
       NWT REQUIRED            3 OUTER ITERATIONS 
       AND A TOTAL OF          5 INNER ITERATIONS.
    ------------------------------------------------

 NO OUTPUT CONTROL FOR STRESS PERIOD    5   TIME STEP   22
 
 SOLVING FOR HEAD 
                                                   Max.-Head-Change                         Max.-Flux-Residual
  Residual-Control   Outer-Iter.   Inner-Iter.     Column Row Layer    Maximum-Head-Change  Column Row Layer    Maximum-Flux-Residual          L2-NORM 
          0                 1           2             3    2     1       0.1394432573E-02       3    2    1         0.7267910576E-01      0.2579775287E+00
          0                 2           2             4    7     1      -0.1161769967E-01       5    6    1        -0.6271233923E+00      0.1538715815E+01
          0                 3           2             4    7     1       0.9473430270E-02       5    6    1         0.5232240277E+00      0.1285350242E+01
          0                 4           2             4    7     1      -0.3769581244E-03       5    6    1        -0.2139991796E-01      0.5313514274E-01
          0                 5           1             2   13     1      -0.5615591805E-05       2   13    1        -0.3328859566E-03      0.8541428680E-03

    ------------------------------------------------
       NWT REQUIRED            5 OUTER ITERATIONS 
       AND A TOTAL OF          9 INNER ITERATIONS.
    ------------------------------------------------

 NO OUTPUT CONTROL FOR STRESS PERIOD    5   TIME STEP   23
 
 SOLVING FOR HEAD 
                                                   Max.-Head-Change                         Max.-Flux-Residual
  Residual-Control   Outer-Iter.   Inner-Iter.     Column Row Layer    Maximum-Head-Change  Column Row Layer    Maximum-Flux-Residual          L2-NORM 
          0                 1           2             3    2     1       0.1388082906E-02       5    6    1         0.7370101855E-01      0.2592273180E+00
          0                 2           2             3    2     1      -0.1350226756E-03       5    6    1        -0.7370105924E-02      0.2592230664E-01
          0                 3           1             3    2     1       0.9194557564E-05       5    6    1         0.5159075768E-03      0.1814537106E-02

    ------------------------------------------------
       NWT REQUIRED            3 OUTER ITERATIONS 
       AND A TOTAL OF          5 INNER ITERATIONS.
    ------------------------------------------------

 NO OUTPUT CONTROL FOR STRESS PERIOD    5   TIME STEP   24
 
 SOLVING FOR HEAD 
                                                   Max.-Head-Change                         Max.-Flux-Residual
  Residual-Control   Outer-Iter.   Inner-Iter.     Column Row Layer    Maximum-Head-Change  Column Row Layer    Maximum-Flux-Residual          L2-NORM 
          0                 1           2             3    2     1       0.1381917995E-02       5    6    1         0.7208209575E-01      0.2570925167E+00
          0                 2           2             4    7     1      -0.1162008565E-01       5    6    1        -0.6272082182E+00      0.1539159998E+01
          0                 3           2             4    7     1       0.9473593305E-02       5    6    1         0.5232299656E+00      0.1285445763E+01
          0                 4           2             4    7     1      -0.3769646120E-03       5    6    1        -0.2140016082E-01      0.5303793936E-01
          0                 5           1             2   13     1      -0.5641565276E-05       2   13    1        -0.3360244573E-03      0.8045589596E-03

    ------------------------------------------------
       NWT REQUIRED            5 OUTER ITERATIONS 
       AND A TOTAL OF          9 INNER ITERATIONS.
    ------------------------------------------------

 NO OUTPUT CONTROL FOR STRESS PERIOD    5   TIME STEP   25
 
 SOLVING FOR HEAD 
                                                   Max.-Head-Change                         Max.-Flux-Residual
  Residual-Control   Outer-Iter.   Inner-Iter.     Column Row Layer    Maximum-Head-Change  Column Row Layer    Maximum-Flux-Residual          L2-NORM 
          0                 1           2             5    6     1       0.1402406723E-02       5    6    1         0.7453116665E-01      0.2596003707E+00
          0                 2           2             5    6     1      -0.1364159899E-03       5    6    1        -0.7453120773E-02      0.2595533967E-01
          0                 3           1             5    6     1       0.9289422602E-05       5    6    1         0.5217186304E-03      0.1816527235E-02

    ------------------------------------------------
       NWT REQUIRED            3 OUTER ITERATIONS 
       AND A TOTAL OF          5 INNER ITERATIONS.
    ------------------------------------------------

 NO OUTPUT CONTROL FOR STRESS PERIOD    5   TIME STEP   26
 
 SOLVING FOR HEAD 
                                                   Max.-Head-Change                         Max.-Flux-Residual
  Residual-Control   Outer-Iter.   Inner-Iter.     Column Row Layer    Maximum-Head-Change  Column Row Layer    Maximum-Flux-Residual          L2-NORM 
          0                 1           2             5    6     1       0.1372474732E-02       5    6    1         0.7287856677E-01      0.2572590477E+00
          0                 2           2             4    7     1      -0.1162243446E-01       5    6    1        -0.6272878653E+00      0.1539568024E+01
          0                 3           2             4    7     1       0.9473753796E-02       5    6    1         0.5232355410E+00      0.1285557873E+01
          0                 4           2             4    7     1      -0.3769709977E-03       5    6    1        -0.2140038885E-01      0.5292336642E-01
          0                 5           1             4    7     1       0.4648213330E-05       5    6    1         0.2712088444E-03      0.7436565530E-03

    ------------------------------------------------
       NWT REQUIRED            5 OUTER ITERATIONS 
       AND A TOTAL OF          9 INNER ITERATIONS.
    ------------------------------------------------

 NO OUTPUT CONTROL FOR STRESS PERIOD    5   TIME STEP   27
 
 SOLVING FOR HEAD 
                                                   Max.-Head-Change                         Max.-Flux-Residual
  Residual-Control   Outer-Iter.   Inner-Iter.     Column Row Layer    Maximum-Head-Change  Column Row Layer    Maximum-Flux-Residual          L2-NORM 
          0                 1           2             5    6     1       0.1416592004E-02       5    6    1         0.7529628683E-01      0.2607024297E+00
          0                 2           2             5    6     1      -0.1377958311E-03       5    6    1        -0.7529632809E-02      0.2605730529E-01
          0                 3           1             5    6     1       0.9383384968E-05       5    6    1         0.5270744771E-03      0.1822813308E-02

    ------------------------------------------------
       NWT REQUIRED            3 OUTER ITERATIONS 
       AND A TOTAL OF          5 INNER ITERATIONS.
    ------------------------------------------------

 NO OUTPUT CONTROL FOR STRESS PERIOD    5   TIME STEP   28
 
 SOLVING FOR HEAD 
                                                   Max.-Head-Change                         Max.-Flux-Residual
  Residual-Control   Outer-Iter.   Inner-Iter.     Column Row Layer    Maximum-Head-Change  Column Row Layer    Maximum-Flux-Residual          L2-NORM 
          0                 1           2             4   13     1       0.2759857020E-02       4   13    1         0.1586541832E+00      0.4047005196E+00
          0                 2           2             4    7     1      -0.1162472456E-01       5    6    1        -0.6273630671E+00      0.1542430299E+01
          0                 3           2             4    7     1       0.1202203442E-01       5    6    1         0.6639153956E+00      0.1631504960E+01
          0                 4           2             4    7     1      -0.4783703674E-03       5    6    1        -0.2715421838E-01      0.7097775190E-01
          0                 5           1             7   13     1       0.2773018379E-04       7   13    1         0.1588597380E-02      0.1843529347E-02

    ------------------------------------------------
       NWT REQUIRED            5 OUTER ITERATIONS 
       AND A TOTAL OF          9 INNER ITERATIONS.
    ------------------------------------------------

 NO OUTPUT CONTROL FOR STRESS PERIOD    5   TIME STEP   29
 
 SOLVING FOR HEAD 
                                                   Max.-Head-Change                         Max.-Flux-Residual
  Residual-Control   Outer-Iter.   Inner-Iter.     Column Row Layer    Maximum-Head-Change  Column Row Layer    Maximum-Flux-Residual          L2-NORM 
          0                 1           2             4   13     1       0.1097041673E-01       4   13    1         0.6306710735E+00      0.1200093762E+01
          0                 2           2             7   13     1      -0.3035067564E-02       7   13    1        -0.1682970021E+00      0.2012451926E+00
          0                 3           2             7   13     1       0.2066174759E-03       7   13    1         0.1177748946E-01      0.1392309677E-01
          0                 4           1             7   13     1      -0.8217196326E-05       7   13    1        -0.4814535507E-03      0.5592855947E-03

    ------------------------------------------------
       NWT REQUIRED            4 OUTER ITERATIONS 
       AND A TOTAL OF          7 INNER ITERATIONS.
    ------------------------------------------------

 NO OUTPUT CONTROL FOR STRESS PERIOD    5   TIME STEP   30



 STREAM LISTING     PERIOD      5   STEP       30

 LAYER ROW COL. STREAM  RCH.  FLOW INTO     FLOW TO   FLOW OUT OF   OVRLND.     DIRECT     STREAM       STREAM     STREAM     STREAM   STREAMBED  STREAMBED
                SEG.NO.  NO.  STRM. RCH.    AQUIFER    STRM. RCH.    RUNOFF     PRECIP       ET          HEAD       DEPTH      WIDTH   CONDCTNC.   GRADIENT

   1    1    1     1     1    3.7125E+01  2.9395E-01   3.6831E+01  0.000E+00  0.000E+00  0.000E+00  1.09436E+03  1.309E+00  1.516E+01  6.821E-02  1.436E+00
   1    2    2     1     2    3.6831E+01  4.5518E-01   3.6376E+01  0.000E+00  0.000E+00  0.000E+00  1.08936E+03  1.306E+00  1.510E+01  1.057E-01  1.435E+00
   1    3    3     1     3    3.6376E+01  3.8814E-01   3.5988E+01  0.000E+00  0.000E+00  0.000E+00  1.08372E+03  1.303E+00  1.503E+01  9.020E-02  1.434E+00
   1    3    4     1     4    3.5988E+01  3.5737E-01   3.5631E+01  0.000E+00  0.000E+00  0.000E+00  1.07871E+03  1.300E+00  1.497E+01  8.311E-02  1.433E+00
   1    4    5     2     1    3.3631E+01  3.4618E-01   3.3284E+01  0.000E+00  0.000E+00  0.000E+00  1.07337E+03  1.438E+00  1.200E+01  7.800E-02  1.479E+00
   1    5    6     2     2    3.3284E+01  2.6582E-01   3.3019E+01  0.000E+00  0.000E+00  0.000E+00  1.06794E+03  1.430E+00  1.200E+01  6.000E-02  1.477E+00
   1    6    6     2     3    3.3019E+01  2.6541E-01   3.2753E+01  0.000E+00  0.000E+00  0.000E+00  1.06322E+03  1.423E+00  1.200E+01  6.000E-02  1.474E+00
   1    7    6     2     4    3.2753E+01  2.6499E-01   3.2488E+01  0.000E+00  0.000E+00  0.000E+00  1.05849E+03  1.417E+00  1.200E+01  6.000E-02  1.472E+00
   1    8    6     2     5    3.2488E+01  2.6458E-01   3.2224E+01  0.000E+00  0.000E+00  0.000E+00  1.05377E+03  1.410E+00  1.200E+01  6.000E-02  1.470E+00
   1    3    5     3     1    2.0000E+00  2.8252E-01   1.7175E+00  0.000E+00  0.000E+00  0.000E+00  1.07555E+03  1.909E+00  9.636E+00  7.227E-02  1.955E+00
   1    3    6     3     2    1.7175E+00  2.4905E-01   1.4684E+00  0.000E+00  0.000E+00  0.000E+00  1.07264E+03  1.727E+00  8.909E+00  6.682E-02  1.864E+00
   1    3    7     3     3    1.4684E+00  1.9718E-01   1.2712E+00  0.000E+00  0.000E+00  0.000E+00  1.06987E+03  1.555E+00  8.218E+00  5.547E-02  1.777E+00
   1    4    8     3     4    1.2712E+00  2.2567E-01   1.0456E+00  0.000E+00  0.000E+00  0.000E+00  1.06682E+03  1.364E+00  7.455E+00  6.709E-02  1.682E+00
   1    5    8     3     5    1.0456E+00  1.5790E-01   8.8768E-01  0.000E+00  0.000E+00  0.000E+00  1.06362E+03  1.164E+00  6.655E+00  4.991E-02  1.582E+00
   1    6    8     3     6    8.8768E-01  5.5980E-02   8.3170E-01  0.000E+00  0.000E+00  0.000E+00  1.06158E+03  1.036E+00  6.145E+00  1.844E-02  1.518E+00
   1    5   10     4     1    1.0000E+01  9.0919E-02   9.9091E+00  0.000E+00  0.000E+00  0.000E+00  1.07836E+03  6.368E-01  1.000E+01  2.500E-02  1.212E+00
   1    5    9     4     2    9.9091E+00  1.8158E-01   9.7275E+00  0.000E+00  0.000E+00  0.000E+00  1.07154E+03  6.315E-01  1.000E+01  5.000E-02  1.211E+00
   1    6    8     4     3    9.7275E+00  1.2689E-01   9.6006E+00  0.000E+00  0.000E+00  0.000E+00  1.06381E+03  6.256E-01  1.000E+01  3.500E-02  1.209E+00
   1    6    8     5     1    1.0432E+01  2.2686E-01   1.0205E+01  0.000E+00  0.000E+00  0.000E+00  1.05868E+03  6.790E-01  1.542E+01  6.166E-02  1.226E+00
   1    7    7     5     2    1.0205E+01  2.7894E-01   9.9265E+00  0.000E+00  0.000E+00  0.000E+00  1.05417E+03  6.732E-01  1.519E+01  7.594E-02  1.224E+00
   1    8    7     5     3    9.9265E+00  1.9221E-01   9.7343E+00  0.000E+00  0.000E+00  0.000E+00  1.04992E+03  6.676E-01  1.497E+01  5.241E-02  1.223E+00
   1    8    6     5     4    9.7343E+00  1.3577E-01   9.5985E+00  0.000E+00  0.000E+00  0.000E+00  1.04691E+03  6.637E-01  1.482E+01  3.706E-02  1.221E+00
   1    9    6     6     1    4.1822E+01  2.7956E-01   4.1542E+01  0.000E+00  0.000E+00  0.000E+00  1.04439E+03  1.659E+00  1.200E+01  6.000E-02  1.553E+00
   1   10    7     6     2    4.1542E+01  2.7916E-01   4.1263E+01  0.000E+00  0.000E+00  0.000E+00  1.03983E+03  1.653E+00  1.200E+01  6.000E-02  1.551E+00
   1   11    7     6     3    4.1263E+01  2.7876E-01   4.0985E+01  0.000E+00  0.000E+00  0.000E+00  1.03528E+03  1.646E+00  1.200E+01  6.000E-02  1.549E+00
   1   12    7     6     4    4.0985E+01  2.7836E-01   4.0706E+01  0.000E+00  0.000E+00  0.000E+00  1.03073E+03  1.639E+00  1.200E+01  6.000E-02  1.546E+00
   1   13    7     6     5    4.0706E+01  1.6709E-02   4.0690E+01  0.000E+00  0.000E+00  0.000E+00  1.02754E+03  1.636E+00  1.200E+01  2.400E-02  2.321E-01
   1   14    9     7     1    1.5000E+02  1.3674E+00   1.4863E+02  0.000E+00  0.000E+00  0.000E+00  1.03987E+03  2.288E+00  5.529E+01  5.593E-01  8.150E-01
   1   13    8     7     2    1.4863E+02  1.9165E+00   1.4672E+02  0.000E+00  0.000E+00  0.000E+00  1.03478E+03  2.279E+00  5.526E+01  6.148E-01  1.039E+00
   1   13    7     7     3    1.4672E+02  1.5860E+00   1.4513E+02  0.000E+00  0.000E+00  0.000E+00  1.02969E+03  2.270E+00  5.521E+01  5.584E-01  9.468E-01
   1   13    6     8     1    1.8582E+02  1.0983E+00   1.8472E+02  0.000E+00  0.000E+00  0.000E+00  1.02492E+03  3.049E+00  4.421E+01  4.505E-01  8.126E-01
   1   13    5     8     2    1.8472E+02  3.0530E-01   1.8442E+02  0.000E+00  0.000E+00  0.000E+00  1.01867E+03  3.045E+00  4.415E+01  4.499E-01  2.262E-01
   1   13    4     8     3    1.8442E+02 -1.7086E+00   1.8612E+02  0.000E+00  0.000E+00  0.000E+00  1.01242E+03  3.049E+00  4.421E+01  4.505E+00 -1.264E-01
   1   13    3     8     4    1.8612E+02 -3.0681E+00   1.8919E+02  0.000E+00  0.000E+00  0.000E+00  1.00619E+03  3.064E+00  4.442E+01  4.527E+00 -2.259E-01
   1   13    2     8     5    1.8919E+02 -2.0204E+00   1.9121E+02  0.000E+00  0.000E+00  0.000E+00  9.99954E+02  3.079E+00  4.465E+01  4.550E+00 -1.480E-01
   1   13    1     8     6    1.9121E+02 -1.6935E+00   1.9291E+02  0.000E+00  0.000E+00  0.000E+00  9.94965E+02  3.090E+00  4.481E+01  2.740E+00 -2.060E-01
   1    8    6     9     1    0.0000E+00  0.0000E+00   0.0000E+00  0.000E+00  0.000E+00  0.000E+00  1.07875E+03  0.000E+00  4.000E+00  0.000E+00  1.000E+00
   1    8    5     9     2    0.0000E+00  0.0000E+00   0.0000E+00  0.000E+00  0.000E+00  0.000E+00  1.07825E+03  0.000E+00  4.000E+00  0.000E+00  1.000E+00





UNSATURATED ZONE PACKAGE VOLUMETRIC BUDGET FOR  TIME STEP    30 STRESS PERIOD    5
  ------------------------------------------------------------------------------



     CUMULATIVE VOLUMES      L**3       RATES FOR THIS TIME STEP      L**3/T
     ------------------                 ------------------------

           IN:                                      IN:
           ---                                      ---
        INFILTRATION =    18772857.4061          INFILTRATION =           0.8475

          OUT:                                     OUT:
          ----                                     ----
              UZF ET =    18615723.2011                UZF ET =           4.5676
        UZF RECHARGE =       73224.0000          UZF RECHARGE =       0.0000E+00

            IN - OUT =       83910.2050              IN - OUT =          -3.7201

          STORAGE:                                 STORAGE:
          --------                                 --------
      STORAGE CHANGE =       83900.2869        STORAGE CHANGE =          -3.7201

 PERCENT DISCREPANCY IS DIFFERENCE BETWEEN IN-OUT MINUS CHANGE IN STORAGE
 DIVIDED BY THE AVERAGE OF IN AND OUT TIMES 100

 PERCENT DISCREPANCY =           0.00     PERCENT DISCREPANCY =           0.00






1
  VOLUMETRIC BUDGET FOR AGRICULTURAL FIELDS AT  END OF TIME STEP   30, STRESS PERIOD   5
  ------------------------------------------------------------------------------

     CUMULATIVE VOLUMES      L**3       RATES FOR THIS TIME STEP      L**3/T
     ------------------                 ------------------------

           IN:                                      IN:
           ---                                      ---
               AG WELLS  =     1035942.6250                 AG WELLS  =           0.0000
      DIVERSION SEGMENTS =     8747815.0000        DIVERSION SEGMENTS =           0.0000
           GW IRRIGATION =           0.0000             GW IRRIGATION =           0.0000
           SW IRRIGATION =           0.0000             SW IRRIGATION =           0.0000
        SYSTEM LOSSES GW =           0.0000          SYSTEM LOSSES GW =           0.0000
        SYSTEM LOSSES SW =           0.0000          SYSTEM LOSSES SW =           0.0000

                TOTAL IN =     9783758.0000                  TOTAL IN =           0.0000

          OUT:                                     OUT:
          ----                                     ----
               AG WELLS  =           0.0000                 AG WELLS  =           0.0000
      DIVERSION SEGMENTS =           0.0000        DIVERSION SEGMENTS =           0.0000
           GW IRRIGATION =     1035942.6250             GW IRRIGATION =           0.0000
           SW IRRIGATION =     8747990.0000             SW IRRIGATION =           0.0000
        SYSTEM LOSSES GW =           0.0000          SYSTEM LOSSES GW =           0.0000
        SYSTEM LOSSES SW =           0.0000          SYSTEM LOSSES SW =           0.0000

               TOTAL OUT =     9783933.0000                 TOTAL OUT =           0.0000

                IN - OUT =        -175.0000                  IN - OUT =           0.0000

     PERCENT DISCREPANCY =          -0.00         PERCENT DISCREPANCY =           0.00



1
  VOLUMETRIC BUDGET FOR ENTIRE MODEL AT END OF TIME STEP   30, STRESS PERIOD   5
  ------------------------------------------------------------------------------

     CUMULATIVE VOLUMES      L**3       RATES FOR THIS TIME STEP      L**3/T
     ------------------                 ------------------------

           IN:                                      IN:
           ---                                      ---
             STORAGE     =     7840339.0000               STORAGE     =           0.4274
       CONSTANT HEAD     =           0.0000         CONSTANT HEAD     =           0.0000
     HEAD DEP BOUNDS     =     3052947.5000       HEAD DEP BOUNDS     =           0.2879
      STREAM LEAKAGE     =   123175216.0000        STREAM LEAKAGE     =          12.7092
        UZF RECHARGE     =       73223.9531          UZF RECHARGE     =           0.0000
               GW ET     =           0.0000                 GW ET     =           0.0000
     SURFACE LEAKAGE     =           0.0000       SURFACE LEAKAGE     =           0.0000
           AG WELLS      =           0.0000             AG WELLS      =           0.0000

                TOTAL IN =   134141728.0000                  TOTAL IN =          13.4245

          OUT:                                     OUT:
          ----                                     ----
             STORAGE     =    21253242.0000               STORAGE     =           4.6457
       CONSTANT HEAD     =           0.0000         CONSTANT HEAD     =           0.0000
     HEAD DEP BOUNDS     =     3057222.5000       HEAD DEP BOUNDS     =           0.2882
      STREAM LEAKAGE     =   108799200.0000        STREAM LEAKAGE     =           8.4906
        UZF RECHARGE     =           0.0000          UZF RECHARGE     =           0.0000
               GW ET     =           0.0000                 GW ET     =           0.0000
     SURFACE LEAKAGE     =           0.0000       SURFACE LEAKAGE     =           0.0000
           AG WELLS      =     1035942.6250             AG WELLS      =           0.0000

               TOTAL OUT =   134145608.0000                 TOTAL OUT =          13.4245

                IN - OUT =       -3880.0000                  IN - OUT =       2.3842E-05

     PERCENT DISCREPANCY =          -0.00         PERCENT DISCREPANCY =           0.00






         TIME SUMMARY AT END OF TIME STEP   30 IN STRESS PERIOD    5
                    SECONDS     MINUTES      HOURS       DAYS        YEARS
                    -----------------------------------------------------------
   TIME STEP LENGTH  87667.      1461.1      24.352      1.0147     2.77799E-03
 STRESS PERIOD TIME 2.63000E+06  43833.      730.56      30.440     8.33397E-02
         TOTAL TIME 1.06064E+07 1.76773E+05  2946.2      122.76     0.33610    
1
1
                            STRESS PERIOD NO.    6, LENGTH =   2630000.    
                            -----------------------------------------------

                              NUMBER OF TIME STEPS =    30

                               MULTIPLIER FOR DELT =     1.000

                            INITIAL TIME STEP SIZE =   87666.66    

 REUSING NON-PARAMETER GHB CELLS FROM LAST STRESS PERIOD

      2 GHB CELLS

 REUSING STREAM SEGMENT DATA FROM LAST STRESS PERIOD



            AREAL INFILTRATION RATE
 READING ON UNIT   19 WITH FORMAT: (FREE)              

            1           2           3           4           5           6           7           8           9          10
 ........................................................................................................................
   1   1.0000E-10  2.0000E-10   0.000       0.000       0.000       0.000       0.000       0.000       0.000       0.000    
   2   2.0000E-10  1.0000E-10  2.0000E-10   0.000       0.000      8.0000E-10  8.0000E-10  5.0000E-10   0.000       0.000    
   3    0.000      5.0000E-10  1.0000E-10  1.0000E-10  8.0000E-10  8.0000E-10  5.0000E-10  5.0000E-10   0.000       0.000    
   4   8.0000E-10  5.0000E-10  1.0000E-10  1.0000E-10  1.0000E-10  1.0000E-10  1.0000E-10  1.0000E-10  2.0000E-10   0.000    
   5   8.0000E-10  5.0000E-10  1.0000E-10  1.0000E-10  1.0000E-10  1.0000E-10  1.0000E-10  1.0000E-10  1.0000E-10  1.0000E-10
   6   8.0000E-10  5.0000E-10  5.0000E-10  2.0000E-10  2.0000E-10  1.0000E-10  1.0000E-10  1.0000E-10  1.0000E-10  5.0000E-10
   7   8.0000E-10  5.0000E-10  5.0000E-10  2.0000E-10  2.0000E-10  1.0000E-10  1.0000E-10  2.0000E-10  2.0000E-10   0.000    
   8    0.000      5.0000E-10  5.0000E-10  2.0000E-10  2.0000E-10  1.0000E-10  1.0000E-10  2.0000E-10  5.0000E-10   0.000    
   9    0.000      5.0000E-10  5.0000E-10  2.0000E-10  2.0000E-10  1.0000E-10  1.0000E-10  2.0000E-10  5.0000E-10   0.000    
  10    0.000      5.0000E-10  5.0000E-10  2.0000E-10  2.0000E-10  1.0000E-10  1.0000E-10  2.0000E-10  5.0000E-10  8.0000E-10
  11    0.000      1.0000E-10  1.0000E-10  1.0000E-10  1.0000E-10  1.0000E-10  1.0000E-10  2.0000E-10  5.0000E-10   0.000    
  12   1.0000E-10  1.0000E-10  1.0000E-10  1.0000E-10  1.0000E-10  1.0000E-10  1.0000E-10  1.0000E-10  2.0000E-10   0.000    
  13   1.0000E-10  1.0000E-10  2.0000E-10  2.0000E-10  2.0000E-10  2.0000E-10  2.0000E-10  1.0000E-10  1.0000E-10   0.000    
  14    0.000      2.0000E-10  5.0000E-10  5.0000E-10  5.0000E-10  5.0000E-10  5.0000E-10  2.0000E-10  1.0000E-10   0.000    
  15    0.000       0.000      8.0000E-10  8.0000E-10  8.0000E-10  8.0000E-10   0.000       0.000       0.000       0.000    

                  ET RATE =  5.000000E-08

 USING ET EXTINCTION DEPTH FROM PREVIOUS STRESS PERIOD. CURRENT PERIOD IS:       6

 USING EXTINCTION WATER CONTENT FROM PREVIOUS STRESS PERIOD. CURRENT PERIOD IS:       6

 USING AIR ENTRY PRESSURE FROM PREVIOUS STRESS PERIOD. CURRENT PERIOD IS:       6

 USING ROOT PRESSURE HEAD FROM PREVIOUS STRESS PERIOD. CURRENT PERIOD IS:       6

 USING ROOT ACTIVITY FROM PREVIOUS STRESS PERIOD. CURRENT PERIOD IS:       6

 PROCESSING AG STRESS PERIOD DATA

 READING AG STRESS PERIOD DATA

 READING IRRIGATION SEGMENT

 READING IRRIGATION WELL

 READING SUPPLEMENTAL WELL

 END PROCESSING AG STRESS PERIOD DATA OPTIONS
 
 SOLVING FOR HEAD 
                                                   Max.-Head-Change                         Max.-Flux-Residual
  Residual-Control   Outer-Iter.   Inner-Iter.     Column Row Layer    Maximum-Head-Change  Column Row Layer    Maximum-Flux-Residual          L2-NORM 
          0                 1           2             4   13     1       0.9980703992E-02       4   13    1         0.5734705218E+00      0.1115348586E+01
          0                 2           2             4    7     1      -0.2326288298E-01       5    6    1        -0.1252148224E+01      0.3088969603E+01
          0                 3           2             4    7     1       0.2413555610E-01       5    6    1         0.1332650254E+01      0.3275343179E+01
          0                 4           2             4    7     1      -0.9603859224E-03       5    6    1        -0.5450563555E-01      0.1347473539E+00
          0                 5           1             4    7     1       0.1184195932E-04       5    6    1         0.6907541399E-03      0.1831774157E-02

    ------------------------------------------------
       NWT REQUIRED            5 OUTER ITERATIONS 
       AND A TOTAL OF          9 INNER ITERATIONS.
    ------------------------------------------------

 NO OUTPUT CONTROL FOR STRESS PERIOD    6   TIME STEP    1
 
 SOLVING FOR HEAD 
                                                   Max.-Head-Change                         Max.-Flux-Residual
  Residual-Control   Outer-Iter.   Inner-Iter.     Column Row Layer    Maximum-Head-Change  Column Row Layer    Maximum-Flux-Residual          L2-NORM 
          0                 1           2             4   13     1       0.9609918293E-02       4   13    1         0.5520453742E+00      0.1088024033E+01
          0                 2           2             4   13     1      -0.9252756409E-03       4   13    1        -0.5465103929E-01      0.1064473215E+00
          0                 3           1             4   13     1       0.6187922648E-04       4   13    1         0.3757805237E-02      0.7242505603E-02

    ------------------------------------------------
       NWT REQUIRED            3 OUTER ITERATIONS 
       AND A TOTAL OF          5 INNER ITERATIONS.
    ------------------------------------------------

 NO OUTPUT CONTROL FOR STRESS PERIOD    6   TIME STEP    2
 
 SOLVING FOR HEAD 
                                                   Max.-Head-Change                         Max.-Flux-Residual
  Residual-Control   Outer-Iter.   Inner-Iter.     Column Row Layer    Maximum-Head-Change  Column Row Layer    Maximum-Flux-Residual          L2-NORM 
          0                 1           2             4   13     1       0.8700346822E-02       4   13    1         0.4995065945E+00      0.1022965650E+01
          0                 2           2             4    7     1      -0.2326338744E-01       5    6    1        -0.1252011143E+01      0.3087365723E+01
          0                 3           2             4    7     1       0.2413558996E-01       5    6    1         0.1332640658E+01      0.3275299131E+01
          0                 4           2             4    7     1      -0.9603872703E-03       5    6    1        -0.5450524310E-01      0.1347451338E+00
          0                 5           1             4    7     1       0.1184197590E-04       5    6    1         0.6907491597E-03      0.1830943579E-02

    ------------------------------------------------
       NWT REQUIRED            5 OUTER ITERATIONS 
       AND A TOTAL OF          9 INNER ITERATIONS.
    ------------------------------------------------

 NO OUTPUT CONTROL FOR STRESS PERIOD    6   TIME STEP    3
 
 SOLVING FOR HEAD 
                                                   Max.-Head-Change                         Max.-Flux-Residual
  Residual-Control   Outer-Iter.   Inner-Iter.     Column Row Layer    Maximum-Head-Change  Column Row Layer    Maximum-Flux-Residual          L2-NORM 
          0                 1           2             4   13     1       0.8455188722E-02       4   13    1         0.4853596701E+00      0.1003760723E+01
          0                 2           2             4   13     1      -0.8138254640E-03       4   13    1        -0.4803313234E-01      0.9827398676E-01
          0                 3           1             4   13     1       0.5462160581E-04       4   13    1         0.3314606288E-02      0.6684130419E-02

    ------------------------------------------------
       NWT REQUIRED            3 OUTER ITERATIONS 
       AND A TOTAL OF          5 INNER ITERATIONS.
    ------------------------------------------------

 NO OUTPUT CONTROL FOR STRESS PERIOD    6   TIME STEP    4
 
 SOLVING FOR HEAD 
                                                   Max.-Head-Change                         Max.-Flux-Residual
  Residual-Control   Outer-Iter.   Inner-Iter.     Column Row Layer    Maximum-Head-Change  Column Row Layer    Maximum-Flux-Residual          L2-NORM 
          0                 1           2             4   13     1       0.7660708275E-02       4   13    1         0.4394866531E+00      0.9475349813E+00
          0                 2           2             4    7     1      -0.2326377941E-01       5    6    1        -0.1251891967E+01      0.3086032716E+01
          0                 3           2             4    7     1       0.2413561611E-01       5    6    1         0.1332632316E+01      0.3275258828E+01
          0                 4           2             4    7     1      -0.9603883108E-03       5    6    1        -0.5450490189E-01      0.1347421898E+00
          0                 5           1             4    7     1       0.1184198845E-04       5    6    1         0.6907448408E-03      0.1831536795E-02

    ------------------------------------------------
       NWT REQUIRED            5 OUTER ITERATIONS 
       AND A TOTAL OF          9 INNER ITERATIONS.
    ------------------------------------------------

 NO OUTPUT CONTROL FOR STRESS PERIOD    6   TIME STEP    5
 
 SOLVING FOR HEAD 
                                                   Max.-Head-Change                         Max.-Flux-Residual
  Residual-Control   Outer-Iter.   Inner-Iter.     Column Row Layer    Maximum-Head-Change  Column Row Layer    Maximum-Flux-Residual          L2-NORM 
          0                 1           2             4   13     1       0.7516804279E-02       4   13    1         0.4312031200E+00      0.9347441171E+00
          0                 2           2             4   13     1      -0.7234443374E-03       4   13    1        -0.4266974033E-01      0.9162773773E-01
          0                 3           1             4   13     1       0.4853891848E-04       4   13    1         0.2943455335E-02      0.6242258665E-02

    ------------------------------------------------
       NWT REQUIRED            3 OUTER ITERATIONS 
       AND A TOTAL OF          5 INNER ITERATIONS.
    ------------------------------------------------

 NO OUTPUT CONTROL FOR STRESS PERIOD    6   TIME STEP    6
 
 SOLVING FOR HEAD 
                                                   Max.-Head-Change                         Max.-Flux-Residual
  Residual-Control   Outer-Iter.   Inner-Iter.     Column Row Layer    Maximum-Head-Change  Column Row Layer    Maximum-Flux-Residual          L2-NORM 
          0                 1           2             2   13     1       0.6914784960E-02       4   13    1         0.3907147124E+00      0.8857982820E+00
          0                 2           2             4    7     1      -0.2326402667E-01       5    6    1        -0.1251787326E+01      0.3084919535E+01
          0                 3           2             4    7     1       0.2413563234E-01       5    6    1         0.1332624991E+01      0.3275223976E+01
          0                 4           2             4    7     1      -0.9603840812E-03       4    6    1        -0.5451159626E-01      0.1347436978E+00
          0                 5           1             4    7     1       0.1183719309E-04       5    6    1         0.6907410416E-03      0.1822634993E-02

    ------------------------------------------------
       NWT REQUIRED            5 OUTER ITERATIONS 
       AND A TOTAL OF          9 INNER ITERATIONS.
    ------------------------------------------------

 NO OUTPUT CONTROL FOR STRESS PERIOD    6   TIME STEP    7
 
 SOLVING FOR HEAD 
                                                   Max.-Head-Change                         Max.-Flux-Residual
  Residual-Control   Outer-Iter.   Inner-Iter.     Column Row Layer    Maximum-Head-Change  Column Row Layer    Maximum-Flux-Residual          L2-NORM 
          0                 1           2             2   13     1       0.6824735898E-02       4   13    1         0.3871710496E+00      0.8780536140E+00
          0                 2           2             4   13     1      -0.6499275217E-03       4   13    1        -0.3831010727E-01      0.8617471279E-01
          0                 3           1             4   13     1       0.4360955645E-04       4   13    1         0.2642890942E-02      0.5881231522E-02

    ------------------------------------------------
       NWT REQUIRED            3 OUTER ITERATIONS 
       AND A TOTAL OF          5 INNER ITERATIONS.
    ------------------------------------------------

 NO OUTPUT CONTROL FOR STRESS PERIOD    6   TIME STEP    8
 
 SOLVING FOR HEAD 
                                                   Max.-Head-Change                         Max.-Flux-Residual
  Residual-Control   Outer-Iter.   Inner-Iter.     Column Row Layer    Maximum-Head-Change  Column Row Layer    Maximum-Flux-Residual          L2-NORM 
          0                 1           2             2   13     1       0.6312269409E-02       2   13    1         0.3556306493E+00      0.8351127036E+00
          0                 2           2             4    7     1      -0.2326402016E-01       5    6    1        -0.1251692999E+01      0.3083980109E+01
          0                 3           2             4    7     1       0.2413547026E-01       5    6    1         0.1332618387E+01      0.3274903200E+01
          0                 4           2             4    7     1      -0.9603924915E-03       4    6    1        -0.5454511371E-01      0.1347550980E+00
          0                 5           1             4    7     1       0.1184203997E-04       4    6    1         0.6912538427E-03      0.1835214925E-02

    ------------------------------------------------
       NWT REQUIRED            5 OUTER ITERATIONS 
       AND A TOTAL OF          9 INNER ITERATIONS.
    ------------------------------------------------

 NO OUTPUT CONTROL FOR STRESS PERIOD    6   TIME STEP    9
 
 SOLVING FOR HEAD 
                                                   Max.-Head-Change                         Max.-Flux-Residual
  Residual-Control   Outer-Iter.   Inner-Iter.     Column Row Layer    Maximum-Head-Change  Column Row Layer    Maximum-Flux-Residual          L2-NORM 
          0                 1           2             2   13     1       0.6267085488E-02       2   13    1         0.3530861208E+00      0.8313176299E+00
          0                 2           2             4   13     1      -0.5899897874E-03       4   13    1        -0.3475827231E-01      0.8167969577E-01
          0                 3           1             4   13     1       0.3956686136E-04       4   13    1         0.2396571314E-02      0.5582202967E-02

    ------------------------------------------------
       NWT REQUIRED            3 OUTER ITERATIONS 
       AND A TOTAL OF          5 INNER ITERATIONS.
    ------------------------------------------------

 NO OUTPUT CONTROL FOR STRESS PERIOD    6   TIME STEP   10
 
 SOLVING FOR HEAD 
                                                   Max.-Head-Change                         Max.-Flux-Residual
  Residual-Control   Outer-Iter.   Inner-Iter.     Column Row Layer    Maximum-Head-Change  Column Row Layer    Maximum-Flux-Residual          L2-NORM 
          0                 1           2             2   13     1       0.5796997928E-02       2   13    1         0.3265635433E+00      0.7933202362E+00
          0                 2           2             4    7     1      -0.2326410125E-01       5    6    1        -0.1251608307E+01      0.3083183837E+01
          0                 3           2             4    7     1       0.2413548985E-01       5    6    1         0.1332612459E+01      0.3274900468E+01
          0                 4           2             4    7     1      -0.9604076320E-03       4    6    1        -0.5460826385E-01      0.1347785868E+00
          0                 5           1             4    7     1       0.1184222704E-04       4    6    1         0.6920541450E-03      0.1831284382E-02

    ------------------------------------------------
       NWT REQUIRED            5 OUTER ITERATIONS 
       AND A TOTAL OF          9 INNER ITERATIONS.
    ------------------------------------------------

 NO OUTPUT CONTROL FOR STRESS PERIOD    6   TIME STEP   11
 
 SOLVING FOR HEAD 
                                                   Max.-Head-Change                         Max.-Flux-Residual
  Residual-Control   Outer-Iter.   Inner-Iter.     Column Row Layer    Maximum-Head-Change  Column Row Layer    Maximum-Flux-Residual          L2-NORM 
          0                 1           2             2   13     1       0.5790127826E-02       2   13    1         0.3261822111E+00      0.7926176631E+00
          0                 2           2             4   13     1      -0.5410853380E-03       4   13    1        -0.3186245419E-01      0.7796002234E-01
          0                 3           1             4   13     1       0.3628529971E-04       4   13    1         0.2196774992E-02      0.5336400767E-02

    ------------------------------------------------
       NWT REQUIRED            3 OUTER ITERATIONS 
       AND A TOTAL OF          5 INNER ITERATIONS.
    ------------------------------------------------

 NO OUTPUT CONTROL FOR STRESS PERIOD    6   TIME STEP   12
 
 SOLVING FOR HEAD 
                                                   Max.-Head-Change                         Max.-Flux-Residual
  Residual-Control   Outer-Iter.   Inner-Iter.     Column Row Layer    Maximum-Head-Change  Column Row Layer    Maximum-Flux-Residual          L2-NORM 
          0                 1           2             2   13     1       0.5356254039E-02       2   13    1         0.3017037630E+00      0.7587054291E+00
          0                 2           2             4    7     1      -0.2326408024E-01       5    6    1        -0.1251531791E+01      0.3082504720E+01
          0                 3           2             4    7     1       0.2413550196E-01       5    6    1         0.1332607103E+01      0.3274899808E+01
          0                 4           2             4    7     1      -0.9604220151E-03       4    6    1        -0.5466941197E-01      0.1348014729E+00
          0                 5           1             4    7     1       0.1184240470E-04       4    6    1         0.6928290738E-03      0.1830720189E-02

    ------------------------------------------------
       NWT REQUIRED            5 OUTER ITERATIONS 
       AND A TOTAL OF          9 INNER ITERATIONS.
    ------------------------------------------------

 NO OUTPUT CONTROL FOR STRESS PERIOD    6   TIME STEP   13
 
 SOLVING FOR HEAD 
                                                   Max.-Head-Change                         Max.-Flux-Residual
  Residual-Control   Outer-Iter.   Inner-Iter.     Column Row Layer    Maximum-Head-Change  Column Row Layer    Maximum-Flux-Residual          L2-NORM 
          0                 1           2             2   13     1       0.5382115498E-02       2   13    1         0.3031703214E+00      0.7604112275E+00
          0                 2           2             4   13     1      -0.5011374926E-03       4   13    1        -0.2949884758E-01      0.7486636401E-01
          0                 3           1             4   13     1       0.3361198067E-04       4   13    1         0.2034152912E-02      0.5131791300E-02

    ------------------------------------------------
       NWT REQUIRED            3 OUTER ITERATIONS 
       AND A TOTAL OF          5 INNER ITERATIONS.
    ------------------------------------------------

 NO OUTPUT CONTROL FOR STRESS PERIOD    6   TIME STEP   14
 
 SOLVING FOR HEAD 
                                                   Max.-Head-Change                         Max.-Flux-Residual
  Residual-Control   Outer-Iter.   Inner-Iter.     Column Row Layer    Maximum-Head-Change  Column Row Layer    Maximum-Flux-Residual          L2-NORM 
          0                 1           2             2   13     1       0.4979278781E-02       2   13    1         0.2804437752E+00      0.7298706449E+00
          0                 2           2             4    7     1      -0.2326402518E-01       5    6    1        -0.1251460285E+01      0.3081923048E+01
          0                 3           2             4    7     1       0.2413551131E-01       5    6    1         0.1332602097E+01      0.3274901526E+01
          0                 4           2             4    7     1      -0.9604358622E-03       4    6    1        -0.5472870424E-01      0.1348242675E+00
          0                 5           1             4    7     1       0.1184257518E-04       4    6    1         0.6935804940E-03      0.1831211449E-02

    ------------------------------------------------
       NWT REQUIRED            5 OUTER ITERATIONS 
       AND A TOTAL OF          9 INNER ITERATIONS.
    ------------------------------------------------

 NO OUTPUT CONTROL FOR STRESS PERIOD    6   TIME STEP   15
 
 SOLVING FOR HEAD 
                                                   Max.-Head-Change                         Max.-Flux-Residual
  Residual-Control   Outer-Iter.   Inner-Iter.     Column Row Layer    Maximum-Head-Change  Column Row Layer    Maximum-Flux-Residual          L2-NORM 
          0                 1           2             2   13     1       0.5033203951E-02       2   13    1         0.2834946331E+00      0.7334744657E+00
          0                 2           2             4   13     1      -0.4684161947E-03       4   13    1        -0.2756445426E-01      0.7227816704E-01
          0                 3           1             4   13     1       0.3141347307E-04       4   13    1         0.1900518158E-02      0.4960170676E-02

    ------------------------------------------------
       NWT REQUIRED            3 OUTER ITERATIONS 
       AND A TOTAL OF          5 INNER ITERATIONS.
    ------------------------------------------------

 NO OUTPUT CONTROL FOR STRESS PERIOD    6   TIME STEP   16
 
 SOLVING FOR HEAD 
                                                   Max.-Head-Change                         Max.-Flux-Residual
  Residual-Control   Outer-Iter.   Inner-Iter.     Column Row Layer    Maximum-Head-Change  Column Row Layer    Maximum-Flux-Residual          L2-NORM 
          0                 1           2             2   13     1       0.4656803278E-02       2   13    1         0.2622600744E+00      0.7057188049E+00
          0                 2           2             4    7     1      -0.2326389186E-01       5    6    1        -0.1251396148E+01      0.3081421899E+01
          0                 3           2             4    7     1       0.2413551489E-01       5    6    1         0.1332597608E+01      0.3274904548E+01
          0                 4           2             4    7     1      -0.9604490880E-03       4    6    1        -0.5478628923E-01      0.1348462390E+00
          0                 5           1             4    7     1       0.1184273805E-04       4    6    1         0.6943150813E-03      0.1831499462E-02

    ------------------------------------------------
       NWT REQUIRED            5 OUTER ITERATIONS 
       AND A TOTAL OF          9 INNER ITERATIONS.
    ------------------------------------------------

 NO OUTPUT CONTROL FOR STRESS PERIOD    6   TIME STEP   17
 
 SOLVING FOR HEAD 
                                                   Max.-Head-Change                         Max.-Flux-Residual
  Residual-Control   Outer-Iter.   Inner-Iter.     Column Row Layer    Maximum-Head-Change  Column Row Layer    Maximum-Flux-Residual          L2-NORM 
          0                 1           2             2   13     1       0.4734627214E-02       2   13    1         0.2666599903E+00      0.7108013806E+00
          0                 2           2             2    2     1      -0.4496789577E-03       4   13    1        -0.2597892075E-01      0.7009897884E-01
          0                 3           1             2    2     1       0.3062146289E-04       4   13    1         0.1791161754E-02      0.4816706418E-02

    ------------------------------------------------
       NWT REQUIRED            3 OUTER ITERATIONS 
       AND A TOTAL OF          5 INNER ITERATIONS.
    ------------------------------------------------

 NO OUTPUT CONTROL FOR STRESS PERIOD    6   TIME STEP   18
 
 SOLVING FOR HEAD 
                                                   Max.-Head-Change                         Max.-Flux-Residual
  Residual-Control   Outer-Iter.   Inner-Iter.     Column Row Layer    Maximum-Head-Change  Column Row Layer    Maximum-Flux-Residual          L2-NORM 
          0                 1           2             2    2     1       0.4599934448E-02       2   13    1         0.2467044882E+00      0.6853612055E+00
          0                 2           2             4    7     1      -0.2326374343E-01       5    6    1        -0.1251335172E+01      0.3080988070E+01
          0                 3           2             4    7     1       0.2413551707E-01       5    6    1         0.1332593340E+01      0.3274909054E+01
          0                 4           2             4    7     1      -0.9604618985E-03       4    6    1        -0.5484231029E-01      0.1348678454E+00
          0                 5           1             4    7     1       0.1184289622E-04       4    6    1         0.6950402696E-03      0.1831785435E-02

    ------------------------------------------------
       NWT REQUIRED            5 OUTER ITERATIONS 
       AND A TOTAL OF          9 INNER ITERATIONS.
    ------------------------------------------------

 NO OUTPUT CONTROL FOR STRESS PERIOD    6   TIME STEP   19
 
 SOLVING FOR HEAD 
                                                   Max.-Head-Change                         Max.-Flux-Residual
  Residual-Control   Outer-Iter.   Inner-Iter.     Column Row Layer    Maximum-Head-Change  Column Row Layer    Maximum-Flux-Residual          L2-NORM 
          0                 1           2             2    2     1       0.4577316932E-02       2   13    1         0.2522596939E+00      0.6916093619E+00
          0                 2           2             2    2     1      -0.4452488246E-03       4   13    1        -0.2467746211E-01      0.6825274098E-01
          0                 3           1             2    2     1       0.3031978730E-04       4   13    1         0.1700376378E-02      0.4692885396E-02

    ------------------------------------------------
       NWT REQUIRED            3 OUTER ITERATIONS 
       AND A TOTAL OF          5 INNER ITERATIONS.
    ------------------------------------------------

 NO OUTPUT CONTROL FOR STRESS PERIOD    6   TIME STEP   20
 
 SOLVING FOR HEAD 
                                                   Max.-Head-Change                         Max.-Flux-Residual
  Residual-Control   Outer-Iter.   Inner-Iter.     Column Row Layer    Maximum-Head-Change  Column Row Layer    Maximum-Flux-Residual          L2-NORM 
          0                 1           2             2    2     1       0.4554988235E-02       2    2    1         0.2374814268E+00      0.6680877158E+00
          0                 2           2             4    7     1      -0.2326356213E-01       5    6    1        -0.1251278365E+01      0.3080610755E+01
          0                 3           2             4    7     1       0.2413551665E-01       5    6    1         0.1332589363E+01      0.3274914919E+01
          0                 4           2             4    7     1      -0.9604742683E-03       4    6    1        -0.5489685811E-01      0.1348889511E+00
          0                 5           1             4    7     1       0.1184304878E-04       4    6    1         0.6957463877E-03      0.1831319874E-02

    ------------------------------------------------
       NWT REQUIRED            5 OUTER ITERATIONS 
       AND A TOTAL OF          9 INNER ITERATIONS.
    ------------------------------------------------

 NO OUTPUT CONTROL FOR STRESS PERIOD    6   TIME STEP   21
 
 SOLVING FOR HEAD 
                                                   Max.-Head-Change                         Max.-Flux-Residual
  Residual-Control   Outer-Iter.   Inner-Iter.     Column Row Layer    Maximum-Head-Change  Column Row Layer    Maximum-Flux-Residual          L2-NORM 
          0                 1           2             2    2     1       0.4532958718E-02       2   13    1         0.2399394776E+00      0.6752737539E+00
          0                 2           2             2    2     1      -0.4409339596E-03       2    2    1        -0.2363245388E-01      0.6668190650E-01
          0                 3           1             2    2     1       0.3002596122E-04       2    2    1         0.1654272057E-02      0.4589160032E-02

    ------------------------------------------------
       NWT REQUIRED            3 OUTER ITERATIONS 
       AND A TOTAL OF          5 INNER ITERATIONS.
    ------------------------------------------------

 NO OUTPUT CONTROL FOR STRESS PERIOD    6   TIME STEP   22
 
 SOLVING FOR HEAD 
                                                   Max.-Head-Change                         Max.-Flux-Residual
  Residual-Control   Outer-Iter.   Inner-Iter.     Column Row Layer    Maximum-Head-Change  Column Row Layer    Maximum-Flux-Residual          L2-NORM 
          0                 1           2             2    2     1       0.4511209142E-02       2    2    1         0.2351815041E+00      0.6533412128E+00
          0                 2           2             4    7     1      -0.2326332746E-01       5    6    1        -0.1251225178E+01      0.3080280498E+01
          0                 3           2             4    7     1       0.2413551226E-01       5    6    1         0.1332585640E+01      0.3274921729E+01
          0                 4           2             4    7     1      -0.9604861670E-03       4    6    1        -0.5495004340E-01      0.1349101682E+00
          0                 5           1             4    7     1       0.1184319552E-04       4    6    1         0.6964348281E-03      0.1832085202E-02

    ------------------------------------------------
       NWT REQUIRED            5 OUTER ITERATIONS 
       AND A TOTAL OF          9 INNER ITERATIONS.
    ------------------------------------------------

 NO OUTPUT CONTROL FOR STRESS PERIOD    6   TIME STEP   23
 
 SOLVING FOR HEAD 
                                                   Max.-Head-Change                         Max.-Flux-Residual
  Residual-Control   Outer-Iter.   Inner-Iter.     Column Row Layer    Maximum-Head-Change  Column Row Layer    Maximum-Flux-Residual          L2-NORM 
          0                 1           2             2    2     1       0.4489749659E-02       2    2    1         0.2340541796E+00      0.6612690761E+00
          0                 2           2             2    2     1      -0.4367308770E-03       2    2    1        -0.2340546214E-01      0.6533454425E-01
          0                 3           1             2    2     1       0.2973974750E-04       2    2    1         0.1638382649E-02      0.4500431168E-02

    ------------------------------------------------
       NWT REQUIRED            3 OUTER ITERATIONS 
       AND A TOTAL OF          5 INNER ITERATIONS.
    ------------------------------------------------

 NO OUTPUT CONTROL FOR STRESS PERIOD    6   TIME STEP   24
 
 SOLVING FOR HEAD 
                                                   Max.-Head-Change                         Max.-Flux-Residual
  Residual-Control   Outer-Iter.   Inner-Iter.     Column Row Layer    Maximum-Head-Change  Column Row Layer    Maximum-Flux-Residual          L2-NORM 
          0                 1           2             2    2     1       0.4468477184E-02       2    2    1         0.2329367171E+00      0.6406736057E+00
          0                 2           2             4    7     1      -0.2326310062E-01       5    6    1        -0.1251175128E+01      0.3079991333E+01
          0                 3           2             4    7     1       0.2413550810E-01       5    6    1         0.1332582137E+01      0.3274929147E+01
          0                 4           2             4    7     1      -0.9604977838E-03       4    6    1        -0.5500195748E-01      0.1349305674E+00
          0                 5           1             4    7     1       0.1184333845E-04       4    6    1         0.6971068335E-03      0.1831906722E-02

    ------------------------------------------------
       NWT REQUIRED            5 OUTER ITERATIONS 
       AND A TOTAL OF          9 INNER ITERATIONS.
    ------------------------------------------------

 NO OUTPUT CONTROL FOR STRESS PERIOD    6   TIME STEP   25
 
 SOLVING FOR HEAD 
                                                   Max.-Head-Change                         Max.-Flux-Residual
  Residual-Control   Outer-Iter.   Inner-Iter.     Column Row Layer    Maximum-Head-Change  Column Row Layer    Maximum-Flux-Residual          L2-NORM 
          0                 1           2             2    2     1       0.4447486659E-02       2    2    1         0.2318341213E+00      0.6491926599E+00
          0                 2           2             2    2     1      -0.4326198203E-03       2    2    1        -0.2318345504E-01      0.6416894222E-01
          0                 3           1             2    2     1       0.2945979971E-04       2    2    1         0.1622842147E-02      0.4422427754E-02

    ------------------------------------------------
       NWT REQUIRED            3 OUTER ITERATIONS 
       AND A TOTAL OF          5 INNER ITERATIONS.
    ------------------------------------------------

 NO OUTPUT CONTROL FOR STRESS PERIOD    6   TIME STEP   26
 
 SOLVING FOR HEAD 
                                                   Max.-Head-Change                         Max.-Flux-Residual
  Residual-Control   Outer-Iter.   Inner-Iter.     Column Row Layer    Maximum-Head-Change  Column Row Layer    Maximum-Flux-Residual          L2-NORM 
          0                 1           2             2    2     1       0.4426845663E-02       2    2    1         0.2307498759E+00      0.6297149513E+00
          0                 2           2             4    7     1      -0.2326283041E-01       5    6    1        -0.1251126269E+01      0.3079733640E+01
          0                 3           2             4    7     1       0.2413550070E-01       5    6    1         0.1332578717E+01      0.3274937937E+01
          0                 4           2             4    7     1      -0.9605089954E-03       4    6    1        -0.5505265426E-01      0.1349512955E+00
          0                 5           1             4    7     1       0.1184347668E-04       4    6    1         0.6977630615E-03      0.1832101865E-02

    ------------------------------------------------
       NWT REQUIRED            5 OUTER ITERATIONS 
       AND A TOTAL OF          9 INNER ITERATIONS.
    ------------------------------------------------

 NO OUTPUT CONTROL FOR STRESS PERIOD    6   TIME STEP   27
 
 SOLVING FOR HEAD 
                                                   Max.-Head-Change                         Max.-Flux-Residual
  Residual-Control   Outer-Iter.   Inner-Iter.     Column Row Layer    Maximum-Head-Change  Column Row Layer    Maximum-Flux-Residual          L2-NORM 
          0                 1           2             2    2     1       0.4406392737E-02       2    2    1         0.2296755664E+00      0.6387302092E+00
          0                 2           2             2    2     1      -0.4286224843E-03       2    2    1        -0.2296759836E-01      0.6315853405E-01
          0                 3           1             2    2     1       0.2918759657E-04       2    2    1         0.1607732198E-02      0.4355852435E-02

    ------------------------------------------------
       NWT REQUIRED            3 OUTER ITERATIONS 
       AND A TOTAL OF          5 INNER ITERATIONS.
    ------------------------------------------------

 NO OUTPUT CONTROL FOR STRESS PERIOD    6   TIME STEP   28
 
 SOLVING FOR HEAD 
                                                   Max.-Head-Change                         Max.-Flux-Residual
  Residual-Control   Outer-Iter.   Inner-Iter.     Column Row Layer    Maximum-Head-Change  Column Row Layer    Maximum-Flux-Residual          L2-NORM 
          0                 1           2             2    2     1       0.4386111072E-02       2    2    1         0.2286103085E+00      0.6201762871E+00
          0                 2           2             4    7     1      -0.2326255157E-01       5    6    1        -0.1251081549E+01      0.3079506187E+01
          0                 3           2             4    7     1       0.2413549244E-01       5    6    1         0.1332575586E+01      0.3274946647E+01
          0                 4           2             4    7     1      -0.9605199196E-03       4    6    1        -0.5510225517E-01      0.1349711370E+00
          0                 5           1             4    7     1       0.1184361177E-04       4    6    1         0.6984051311E-03      0.1832912767E-02

    ------------------------------------------------
       NWT REQUIRED            5 OUTER ITERATIONS 
       AND A TOTAL OF          9 INNER ITERATIONS.
    ------------------------------------------------

 NO OUTPUT CONTROL FOR STRESS PERIOD    6   TIME STEP   29
 
 SOLVING FOR HEAD 
                                                   Max.-Head-Change                         Max.-Flux-Residual
  Residual-Control   Outer-Iter.   Inner-Iter.     Column Row Layer    Maximum-Head-Change  Column Row Layer    Maximum-Flux-Residual          L2-NORM 
          0                 1           2             2    2     1       0.4097701256E-02       2    2    1         0.2135326291E+00      0.5570685244E+00
          0                 2           2             2    2     1      -0.3985951156E-03       2    2    1        -0.2135329767E-01      0.5527407639E-01
          0                 3           1             2    2     1       0.2714284435E-04       2    2    1         0.1494731154E-02      0.3829568280E-02

    ------------------------------------------------
       NWT REQUIRED            3 OUTER ITERATIONS 
       AND A TOTAL OF          5 INNER ITERATIONS.
    ------------------------------------------------

 NO OUTPUT CONTROL FOR STRESS PERIOD    6   TIME STEP   30



 STREAM LISTING     PERIOD      6   STEP       30

 LAYER ROW COL. STREAM  RCH.  FLOW INTO     FLOW TO   FLOW OUT OF   OVRLND.     DIRECT     STREAM       STREAM     STREAM     STREAM   STREAMBED  STREAMBED
                SEG.NO.  NO.  STRM. RCH.    AQUIFER    STRM. RCH.    RUNOFF     PRECIP       ET          HEAD       DEPTH      WIDTH   CONDCTNC.   GRADIENT

   1    1    1     1     1    3.4633E+01  2.8494E-01   3.4348E+01  0.000E+00  0.000E+00  0.000E+00  1.09434E+03  1.289E+00  1.476E+01  6.643E-02  1.430E+00
   1    2    2     1     2    3.4348E+01  4.4115E-01   3.3907E+01  0.000E+00  0.000E+00  0.000E+00  1.08934E+03  1.286E+00  1.470E+01  1.029E-01  1.429E+00
   1    3    3     1     3    3.3907E+01  3.7610E-01   3.3531E+01  0.000E+00  0.000E+00  0.000E+00  1.08370E+03  1.283E+00  1.464E+01  8.782E-02  1.428E+00
   1    3    4     1     4    3.3531E+01  3.4622E-01   3.3185E+01  0.000E+00  0.000E+00  0.000E+00  1.07869E+03  1.280E+00  1.458E+01  8.090E-02  1.427E+00
   1    4    5     2     1    3.1185E+01  3.4119E-01   3.0843E+01  0.000E+00  0.000E+00  0.000E+00  1.07331E+03  1.374E+00  1.200E+01  7.800E-02  1.458E+00
   1    5    6     2     2    3.0843E+01  2.6198E-01   3.0581E+01  0.000E+00  0.000E+00  0.000E+00  1.06788E+03  1.366E+00  1.200E+01  6.000E-02  1.455E+00
   1    6    6     2     3    3.0581E+01  2.6156E-01   3.0320E+01  0.000E+00  0.000E+00  0.000E+00  1.06315E+03  1.359E+00  1.200E+01  6.000E-02  1.453E+00
   1    7    6     2     4    3.0320E+01  2.6113E-01   3.0059E+01  0.000E+00  0.000E+00  0.000E+00  1.05843E+03  1.352E+00  1.200E+01  6.000E-02  1.451E+00
   1    8    6     2     5    3.0059E+01  2.6071E-01   2.9798E+01  0.000E+00  0.000E+00  0.000E+00  1.05370E+03  1.345E+00  1.200E+01  6.000E-02  1.448E+00
   1    3    5     3     1    2.0000E+00  2.8252E-01   1.7175E+00  0.000E+00  0.000E+00  0.000E+00  1.07555E+03  1.909E+00  9.636E+00  7.227E-02  1.955E+00
   1    3    6     3     2    1.7175E+00  2.4905E-01   1.4684E+00  0.000E+00  0.000E+00  0.000E+00  1.07264E+03  1.727E+00  8.909E+00  6.682E-02  1.864E+00
   1    3    7     3     3    1.4684E+00  1.9718E-01   1.2712E+00  0.000E+00  0.000E+00  0.000E+00  1.06987E+03  1.555E+00  8.218E+00  5.547E-02  1.777E+00
   1    4    8     3     4    1.2712E+00  2.2567E-01   1.0456E+00  0.000E+00  0.000E+00  0.000E+00  1.06682E+03  1.364E+00  7.455E+00  6.709E-02  1.682E+00
   1    5    8     3     5    1.0456E+00  1.5790E-01   8.8768E-01  0.000E+00  0.000E+00  0.000E+00  1.06362E+03  1.164E+00  6.655E+00  4.991E-02  1.582E+00
   1    6    8     3     6    8.8768E-01  5.5980E-02   8.3170E-01  0.000E+00  0.000E+00  0.000E+00  1.06158E+03  1.036E+00  6.145E+00  1.844E-02  1.518E+00
   1    5   10     4     1    1.0000E+01  9.0919E-02   9.9091E+00  0.000E+00  0.000E+00  0.000E+00  1.07836E+03  6.368E-01  1.000E+01  2.500E-02  1.212E+00
   1    5    9     4     2    9.9091E+00  1.8158E-01   9.7275E+00  0.000E+00  0.000E+00  0.000E+00  1.07154E+03  6.315E-01  1.000E+01  5.000E-02  1.211E+00
   1    6    8     4     3    9.7275E+00  1.2689E-01   9.6006E+00  0.000E+00  0.000E+00  0.000E+00  1.06381E+03  6.256E-01  1.000E+01  3.500E-02  1.209E+00
   1    6    8     5     1    1.0432E+01  2.2686E-01   1.0205E+01  0.000E+00  0.000E+00  0.000E+00  1.05868E+03  6.790E-01  1.542E+01  6.166E-02  1.226E+00
   1    7    7     5     2    1.0205E+01  2.7894E-01   9.9265E+00  0.000E+00  0.000E+00  0.000E+00  1.05417E+03  6.732E-01  1.519E+01  7.594E-02  1.224E+00
   1    8    7     5     3    9.9265E+00  1.9221E-01   9.7343E+00  0.000E+00  0.000E+00  0.000E+00  1.04992E+03  6.676E-01  1.497E+01  5.241E-02  1.223E+00
   1    8    6     5     4    9.7343E+00  1.3577E-01   9.5985E+00  0.000E+00  0.000E+00  0.000E+00  1.04691E+03  6.637E-01  1.482E+01  3.706E-02  1.221E+00
   1    9    6     6     1    3.9397E+01  2.7605E-01   3.9121E+01  0.000E+00  0.000E+00  0.000E+00  1.04433E+03  1.601E+00  1.200E+01  6.000E-02  1.534E+00
   1   10    7     6     2    3.9121E+01  2.7564E-01   3.8845E+01  0.000E+00  0.000E+00  0.000E+00  1.03978E+03  1.594E+00  1.200E+01  6.000E-02  1.531E+00
   1   11    7     6     3    3.8845E+01  2.7524E-01   3.8570E+01  0.000E+00  0.000E+00  0.000E+00  1.03522E+03  1.587E+00  1.200E+01  6.000E-02  1.529E+00
   1   12    7     6     4    3.8570E+01  2.7483E-01   3.8295E+01  0.000E+00  0.000E+00  0.000E+00  1.03067E+03  1.580E+00  1.200E+01  6.000E-02  1.527E+00
   1   13    7     6     5    3.8295E+01  1.4927E-02   3.8280E+01  0.000E+00  0.000E+00  0.000E+00  1.02749E+03  1.577E+00  1.200E+01  2.400E-02  2.073E-01
   1   14    9     7     1    1.5000E+02  1.3677E+00   1.4863E+02  0.000E+00  0.000E+00  0.000E+00  1.03987E+03  2.288E+00  5.529E+01  5.593E-01  8.152E-01
   1   13    8     7     2    1.4863E+02  1.9156E+00   1.4672E+02  0.000E+00  0.000E+00  0.000E+00  1.03478E+03  2.279E+00  5.526E+01  6.148E-01  1.039E+00
   1   13    7     7     3    1.4672E+02  1.5775E+00   1.4514E+02  0.000E+00  0.000E+00  0.000E+00  1.02969E+03  2.270E+00  5.521E+01  5.584E-01  9.416E-01
   1   13    6     8     1    1.8342E+02  1.0737E+00   1.8235E+02  0.000E+00  0.000E+00  0.000E+00  1.02491E+03  3.034E+00  4.400E+01  4.483E-01  7.983E-01
   1   13    5     8     2    1.8235E+02  2.8501E-01   1.8206E+02  0.000E+00  0.000E+00  0.000E+00  1.01865E+03  3.030E+00  4.393E+01  4.477E-01  2.122E-01
   1   13    4     8     3    1.8206E+02 -2.0612E+00   1.8412E+02  0.000E+00  0.000E+00  0.000E+00  1.01241E+03  3.035E+00  4.401E+01  4.485E+00 -1.532E-01
   1   13    3     8     4    1.8412E+02 -3.3997E+00   1.8752E+02  0.000E+00  0.000E+00  0.000E+00  1.00618E+03  3.052E+00  4.426E+01  4.510E+00 -2.513E-01
   1   13    2     8     5    1.8752E+02 -2.3862E+00   1.8991E+02  0.000E+00  0.000E+00  0.000E+00  9.99945E+02  3.070E+00  4.452E+01  4.536E+00 -1.753E-01
   1   13    1     8     6    1.8991E+02 -1.8582E+00   1.9177E+02  0.000E+00  0.000E+00  0.000E+00  9.94958E+02  3.083E+00  4.470E+01  2.733E+00 -2.266E-01
   1    8    6     9     1    0.0000E+00  0.0000E+00   0.0000E+00  0.000E+00  0.000E+00  0.000E+00  1.07875E+03  0.000E+00  4.000E+00  0.000E+00  1.000E+00
   1    8    5     9     2    0.0000E+00  0.0000E+00   0.0000E+00  0.000E+00  0.000E+00  0.000E+00  1.07825E+03  0.000E+00  4.000E+00  0.000E+00  1.000E+00





UNSATURATED ZONE PACKAGE VOLUMETRIC BUDGET FOR  TIME STEP    30 STRESS PERIOD    6
  ------------------------------------------------------------------------------



     CUMULATIVE VOLUMES      L**3       RATES FOR THIS TIME STEP      L**3/T
     ------------------                 ------------------------

           IN:                                      IN:
           ---                                      ---
        INFILTRATION =    40648375.5403          INFILTRATION =           0.8475

          OUT:                                     OUT:
          ----                                     ----
              UZF ET =    40491146.3275                UZF ET =           8.3178
        UZF RECHARGE =       73224.0000          UZF RECHARGE =       0.0000E+00

            IN - OUT =       84005.2128              IN - OUT =          -7.4703

          STORAGE:                                 STORAGE:
          --------                                 --------
      STORAGE CHANGE =       83975.8619        STORAGE CHANGE =          -7.4703

 PERCENT DISCREPANCY IS DIFFERENCE BETWEEN IN-OUT MINUS CHANGE IN STORAGE
 DIVIDED BY THE AVERAGE OF IN AND OUT TIMES 100

 PERCENT DISCREPANCY =           0.00     PERCENT DISCREPANCY =           0.00






1
  VOLUMETRIC BUDGET FOR AGRICULTURAL FIELDS AT  END OF TIME STEP   30, STRESS PERIOD   6
  ------------------------------------------------------------------------------

     CUMULATIVE VOLUMES      L**3       RATES FOR THIS TIME STEP      L**3/T
     ------------------                 ------------------------

           IN:                                      IN:
           ---                                      ---
               AG WELLS  =     1035942.6250                 AG WELLS  =           0.0000
      DIVERSION SEGMENTS =    28394016.0000        DIVERSION SEGMENTS =           0.0000
           GW IRRIGATION =           0.0000             GW IRRIGATION =           0.0000
           SW IRRIGATION =           0.0000             SW IRRIGATION =           0.0000
        SYSTEM LOSSES GW =           0.0000          SYSTEM LOSSES GW =           0.0000
        SYSTEM LOSSES SW =           0.0000          SYSTEM LOSSES SW =           0.0000

                TOTAL IN =    29429958.0000                  TOTAL IN =           0.0000

          OUT:                                     OUT:
          ----                                     ----
               AG WELLS  =           0.0000                 AG WELLS  =           0.0000
      DIVERSION SEGMENTS =           0.0000        DIVERSION SEGMENTS =           0.0000
           GW IRRIGATION =     1035942.6250             GW IRRIGATION =           0.0000
           SW IRRIGATION =    28394582.0000             SW IRRIGATION =           0.0000
        SYSTEM LOSSES GW =           0.0000          SYSTEM LOSSES GW =           0.0000
        SYSTEM LOSSES SW =           0.0000          SYSTEM LOSSES SW =           0.0000

               TOTAL OUT =    29430524.0000                 TOTAL OUT =           0.0000

                IN - OUT =        -566.0000                  IN - OUT =           0.0000

     PERCENT DISCREPANCY =          -0.00         PERCENT DISCREPANCY =           0.00



1
  VOLUMETRIC BUDGET FOR ENTIRE MODEL AT END OF TIME STEP   30, STRESS PERIOD   6
  ------------------------------------------------------------------------------

     CUMULATIVE VOLUMES      L**3       RATES FOR THIS TIME STEP      L**3/T
     ------------------                 ------------------------

           IN:                                      IN:
           ---                                      ---
             STORAGE     =     9036410.0000               STORAGE     =           0.3508
       CONSTANT HEAD     =           0.0000         CONSTANT HEAD     =           0.0000
     HEAD DEP BOUNDS     =     3810180.0000       HEAD DEP BOUNDS     =           0.2879
      STREAM LEAKAGE     =   156243632.0000        STREAM LEAKAGE     =          12.5726
        UZF RECHARGE     =       73223.9531          UZF RECHARGE     =           0.0000
               GW ET     =           0.0000                 GW ET     =           0.0000
     SURFACE LEAKAGE     =           0.0000       SURFACE LEAKAGE     =           0.0000
           AG WELLS      =           0.0000             AG WELLS      =           0.0000

                TOTAL IN =   169163440.0000                  TOTAL IN =          13.2113

          OUT:                                     OUT:
          ----                                     ----
             STORAGE     =    29828236.0000               STORAGE     =           3.2166
       CONSTANT HEAD     =           0.0000         CONSTANT HEAD     =           0.0000
     HEAD DEP BOUNDS     =     3818443.0000       HEAD DEP BOUNDS     =           0.2902
      STREAM LEAKAGE     =   134485952.0000        STREAM LEAKAGE     =           9.7053
        UZF RECHARGE     =           0.0000          UZF RECHARGE     =           0.0000
               GW ET     =           0.0000                 GW ET     =           0.0000
     SURFACE LEAKAGE     =           0.0000       SURFACE LEAKAGE     =           0.0000
           AG WELLS      =     1035942.6250             AG WELLS      =           0.0000

               TOTAL OUT =   169168576.0000                 TOTAL OUT =          13.2121

                IN - OUT =       -5136.0000                  IN - OUT =      -8.1444E-04

     PERCENT DISCREPANCY =          -0.00         PERCENT DISCREPANCY =          -0.01






         TIME SUMMARY AT END OF TIME STEP   30 IN STRESS PERIOD    6
                    SECONDS     MINUTES      HOURS       DAYS        YEARS
                    -----------------------------------------------------------
   TIME STEP LENGTH  87667.      1461.1      24.352      1.0147     2.77799E-03
 STRESS PERIOD TIME 2.63000E+06  43833.      730.56      30.440     8.33397E-02
         TOTAL TIME 1.32364E+07 2.20607E+05  3676.8      153.20     0.41944    
1
1
                            STRESS PERIOD NO.    7, LENGTH =   2630000.    
                            -----------------------------------------------

                              NUMBER OF TIME STEPS =    30

                               MULTIPLIER FOR DELT =     1.000

                            INITIAL TIME STEP SIZE =   87666.66    

 REUSING NON-PARAMETER GHB CELLS FROM LAST STRESS PERIOD

      2 GHB CELLS

 REUSING STREAM SEGMENT DATA FROM LAST STRESS PERIOD



            AREAL INFILTRATION RATE
 READING ON UNIT   19 WITH FORMAT: (FREE)              

            1           2           3           4           5           6           7           8           9          10
 ........................................................................................................................
   1   1.0000E-10  2.0000E-10   0.000       0.000       0.000       0.000       0.000       0.000       0.000       0.000    
   2   2.0000E-10  1.0000E-10  2.0000E-10   0.000       0.000      8.0000E-10  8.0000E-10  5.0000E-10   0.000       0.000    
   3    0.000      5.0000E-10  1.0000E-10  1.0000E-10  8.0000E-10  8.0000E-10  5.0000E-10  5.0000E-10   0.000       0.000    
   4   8.0000E-10  5.0000E-10  1.0000E-10  1.0000E-10  1.0000E-10  1.0000E-10  1.0000E-10  1.0000E-10  2.0000E-10   0.000    
   5   8.0000E-10  5.0000E-10  1.0000E-10  1.0000E-10  1.0000E-10  1.0000E-10  1.0000E-10  1.0000E-10  1.0000E-10  1.0000E-10
   6   8.0000E-10  5.0000E-10  5.0000E-10  2.0000E-10  2.0000E-10  1.0000E-10  1.0000E-10  1.0000E-10  1.0000E-10  5.0000E-10
   7   8.0000E-10  5.0000E-10  5.0000E-10  2.0000E-10  2.0000E-10  1.0000E-10  1.0000E-10  2.0000E-10  2.0000E-10   0.000    
   8    0.000      5.0000E-10  5.0000E-10  2.0000E-10  2.0000E-10  1.0000E-10  1.0000E-10  2.0000E-10  5.0000E-10   0.000    
   9    0.000      5.0000E-10  5.0000E-10  2.0000E-10  2.0000E-10  1.0000E-10  1.0000E-10  2.0000E-10  5.0000E-10   0.000    
  10    0.000      5.0000E-10  5.0000E-10  2.0000E-10  2.0000E-10  1.0000E-10  1.0000E-10  2.0000E-10  5.0000E-10  8.0000E-10
  11    0.000      1.0000E-10  1.0000E-10  1.0000E-10  1.0000E-10  1.0000E-10  1.0000E-10  2.0000E-10  5.0000E-10   0.000    
  12   1.0000E-10  1.0000E-10  1.0000E-10  1.0000E-10  1.0000E-10  1.0000E-10  1.0000E-10  1.0000E-10  2.0000E-10   0.000    
  13   1.0000E-10  1.0000E-10  2.0000E-10  2.0000E-10  2.0000E-10  2.0000E-10  2.0000E-10  1.0000E-10  1.0000E-10   0.000    
  14    0.000      2.0000E-10  5.0000E-10  5.0000E-10  5.0000E-10  5.0000E-10  5.0000E-10  2.0000E-10  1.0000E-10   0.000    
  15    0.000       0.000      8.0000E-10  8.0000E-10  8.0000E-10  8.0000E-10   0.000       0.000       0.000       0.000    

                  ET RATE =  1.500000E-07

 USING ET EXTINCTION DEPTH FROM PREVIOUS STRESS PERIOD. CURRENT PERIOD IS:       7

 USING EXTINCTION WATER CONTENT FROM PREVIOUS STRESS PERIOD. CURRENT PERIOD IS:       7

 USING AIR ENTRY PRESSURE FROM PREVIOUS STRESS PERIOD. CURRENT PERIOD IS:       7

 USING ROOT PRESSURE HEAD FROM PREVIOUS STRESS PERIOD. CURRENT PERIOD IS:       7

 USING ROOT ACTIVITY FROM PREVIOUS STRESS PERIOD. CURRENT PERIOD IS:       7

 PROCESSING AG STRESS PERIOD DATA

 READING AG STRESS PERIOD DATA

 READING IRRIGATION SEGMENT

 READING IRRIGATION WELL

 READING SUPPLEMENTAL WELL

 END PROCESSING AG STRESS PERIOD DATA OPTIONS
 
 SOLVING FOR HEAD 
                                                   Max.-Head-Change                         Max.-Flux-Residual
  Residual-Control   Outer-Iter.   Inner-Iter.     Column Row Layer    Maximum-Head-Change  Column Row Layer    Maximum-Flux-Residual          L2-NORM 
          0                 1           2             2    2     1       0.3683998728E-02       2    2    1         0.1919078638E+00      0.4638520581E+00
          0                 2           2             4    7     1      -0.6981189106E-01       5    6    1        -0.3751032096E+01      0.9227294309E+01
          0                 3           2             4    7     1       0.1658226479E-01       5    6    1         0.9156025420E+00      0.2244552936E+01
          0                 4           2             4    7     1      -0.6598283579E-03       5    6    1        -0.3744827469E-01      0.9199940177E-01
          0                 5           1             4    7     1       0.8135962706E-05       5    6    1         0.4745849456E-03      0.1198830242E-02

    ------------------------------------------------
       NWT REQUIRED            5 OUTER ITERATIONS 
       AND A TOTAL OF          9 INNER ITERATIONS.
    ------------------------------------------------

 NO OUTPUT CONTROL FOR STRESS PERIOD    7   TIME STEP    1
 
 SOLVING FOR HEAD 
                                                   Max.-Head-Change                         Max.-Flux-Residual
  Residual-Control   Outer-Iter.   Inner-Iter.     Column Row Layer    Maximum-Head-Change  Column Row Layer    Maximum-Flux-Residual          L2-NORM 
          0                 1           2             2    2     1       0.3669234135E-02       2    2    1         0.1911328175E+00      0.5468988677E+00
          0                 2           2             7   13     1      -0.2334835617E-02       7   13    1        -0.1295079107E+00      0.1394055776E+00
          0                 3           2             7   13     1       0.1586165018E-03       7   13    1         0.9044243403E-02      0.9965584318E-02
          0                 4           1             7   13     1      -0.6307622251E-05       7   13    1        -0.3696863200E-03      0.4069611658E-03

    ------------------------------------------------
       NWT REQUIRED            4 OUTER ITERATIONS 
       AND A TOTAL OF          7 INNER ITERATIONS.
    ------------------------------------------------

 NO OUTPUT CONTROL FOR STRESS PERIOD    7   TIME STEP    2
 
 SOLVING FOR HEAD 
                                                   Max.-Head-Change                         Max.-Flux-Residual
  Residual-Control   Outer-Iter.   Inner-Iter.     Column Row Layer    Maximum-Head-Change  Column Row Layer    Maximum-Flux-Residual          L2-NORM 
          0                 1           2             2    2     1       0.3654649680E-02       2    2    1         0.1903672902E+00      0.5204323503E+00
          0                 2           2             4    7     1      -0.6984803454E-01       5    6    1        -0.3759198152E+01      0.9241556504E+01
          0                 3           2             4    7     1       0.1656718760E-01       5    6    1         0.9161741696E+00      0.2245512020E+01
          0                 4           2             4    7     1      -0.6592256170E-03       5    6    1        -0.3747165344E-01      0.9203504304E-01
          0                 5           1             4    7     1       0.8128534779E-05       5    6    1         0.4748812360E-03      0.1200113154E-02

    ------------------------------------------------
       NWT REQUIRED            5 OUTER ITERATIONS 
       AND A TOTAL OF          9 INNER ITERATIONS.
    ------------------------------------------------

 NO OUTPUT CONTROL FOR STRESS PERIOD    7   TIME STEP    3
 
 SOLVING FOR HEAD 
                                                   Max.-Head-Change                         Max.-Flux-Residual
  Residual-Control   Outer-Iter.   Inner-Iter.     Column Row Layer    Maximum-Head-Change  Column Row Layer    Maximum-Flux-Residual          L2-NORM 
          0                 1           2             5    6     1       0.4140574340E-02       5    6    1         0.2243054749E+00      0.6516392604E+00
          0                 2           2             7   13     1      -0.2338940113E-02       7   13    1        -0.1297349253E+00      0.1436321849E+00
          0                 3           2             7   13     1       0.1592287287E-03       7   13    1         0.9078965290E-02      0.1003770989E-01
          0                 4           1             7   13     1      -0.6333252418E-05       7   13    1        -0.3711784182E-03      0.4098027536E-03

    ------------------------------------------------
       NWT REQUIRED            4 OUTER ITERATIONS 
       AND A TOTAL OF          7 INNER ITERATIONS.
    ------------------------------------------------

 NO OUTPUT CONTROL FOR STRESS PERIOD    7   TIME STEP    4
 
 SOLVING FOR HEAD 
                                                   Max.-Head-Change                         Max.-Flux-Residual
  Residual-Control   Outer-Iter.   Inner-Iter.     Column Row Layer    Maximum-Head-Change  Column Row Layer    Maximum-Flux-Residual          L2-NORM 
          0                 1           2             5    6     1       0.3976786376E-02       5    6    1         0.2151982162E+00      0.6193811366E+00
          0                 2           2             4    7     1      -0.6992396392E-01       5    6    1        -0.3766519964E+01      0.9254740400E+01
          0                 3           2             4    7     1       0.1659677507E-01       5    6    1         0.9166413841E+00      0.2246986180E+01
          0                 4           2             4    7     1      -0.6604029601E-03       5    6    1        -0.3747850889E-01      0.9208837135E-01
          0                 5           1             4    7     1       0.8143052125E-05       4    7    1         0.4745700603E-03      0.1202083518E-02

    ------------------------------------------------
       NWT REQUIRED            5 OUTER ITERATIONS 
       AND A TOTAL OF          9 INNER ITERATIONS.
    ------------------------------------------------

 OUTPUT CONTROL FOR STRESS PERIOD    7   TIME STEP    5
    PRINT BUDGET
    SAVE BUDGET
 UBDSV1 SAVING "         STORAGE" ON UNIT 102 AT TIME STEP  5, STRESS PERIOD   7
 UBDSV2 SAVING "   CONSTANT HEAD" ON UNIT 102 AT TIME STEP  5, STRESS PERIOD   7
 UBDSV1 SAVING "FLOW RIGHT FACE " ON UNIT 102 AT TIME STEP  5, STRESS PERIOD   7
 UBDSV1 SAVING "FLOW FRONT FACE " ON UNIT 102 AT TIME STEP  5, STRESS PERIOD   7

  HEAD DEP BOUNDS   PERIOD    7   STEP     5
 BOUNDARY      1   LAYER   1   ROW    13   COL     1   RATE   -0.289900    
 BOUNDARY      2   LAYER   1   ROW    14   COL     9   RATE    0.287936    



 STREAM LISTING     PERIOD      7   STEP        5

 LAYER ROW COL. STREAM  RCH.  FLOW INTO     FLOW TO   FLOW OUT OF   OVRLND.     DIRECT     STREAM       STREAM     STREAM     STREAM   STREAMBED  STREAMBED
                SEG.NO.  NO.  STRM. RCH.    AQUIFER    STRM. RCH.    RUNOFF     PRECIP       ET          HEAD       DEPTH      WIDTH   CONDCTNC.   GRADIENT

   1    1    1     1     1    3.1125E+01  2.7165E-01   3.0853E+01  0.000E+00  0.000E+00  0.000E+00  1.09431E+03  1.259E+00  1.417E+01  6.378E-02  1.420E+00
   1    2    2     1     2    3.0853E+01  4.2045E-01   3.0433E+01  0.000E+00  0.000E+00  0.000E+00  1.08931E+03  1.256E+00  1.411E+01  9.879E-02  1.419E+00
   1    3    3     1     3    3.0433E+01  3.5834E-01   3.0075E+01  0.000E+00  0.000E+00  0.000E+00  1.08367E+03  1.252E+00  1.404E+01  8.427E-02  1.417E+00
   1    3    4     1     4    3.0075E+01  3.2976E-01   2.9745E+01  0.000E+00  0.000E+00  0.000E+00  1.07866E+03  1.249E+00  1.398E+01  7.761E-02  1.416E+00
   1    4    5     2     1    2.7745E+01  3.3390E-01   2.7411E+01  0.000E+00  0.000E+00  0.000E+00  1.07321E+03  1.281E+00  1.200E+01  7.800E-02  1.427E+00
   1    5    6     2     2    2.7411E+01  2.5635E-01   2.7155E+01  0.000E+00  0.000E+00  0.000E+00  1.06778E+03  1.273E+00  1.200E+01  6.000E-02  1.424E+00
   1    6    6     2     3    2.7155E+01  2.5592E-01   2.6899E+01  0.000E+00  0.000E+00  0.000E+00  1.06306E+03  1.265E+00  1.200E+01  6.000E-02  1.422E+00
   1    7    6     2     4    2.6899E+01  2.5549E-01   2.6643E+01  0.000E+00  0.000E+00  0.000E+00  1.05833E+03  1.258E+00  1.200E+01  6.000E-02  1.419E+00
   1    8    6     2     5    2.6643E+01  2.5506E-01   2.6388E+01  0.000E+00  0.000E+00  0.000E+00  1.05361E+03  1.251E+00  1.200E+01  6.000E-02  1.417E+00
   1    3    5     3     1    2.0000E+00  2.8252E-01   1.7175E+00  0.000E+00  0.000E+00  0.000E+00  1.07555E+03  1.909E+00  9.636E+00  7.227E-02  1.955E+00
   1    3    6     3     2    1.7175E+00  2.4905E-01   1.4684E+00  0.000E+00  0.000E+00  0.000E+00  1.07264E+03  1.727E+00  8.909E+00  6.682E-02  1.864E+00
   1    3    7     3     3    1.4684E+00  1.9718E-01   1.2712E+00  0.000E+00  0.000E+00  0.000E+00  1.06987E+03  1.555E+00  8.218E+00  5.547E-02  1.777E+00
   1    4    8     3     4    1.2712E+00  2.2567E-01   1.0456E+00  0.000E+00  0.000E+00  0.000E+00  1.06682E+03  1.364E+00  7.455E+00  6.709E-02  1.682E+00
   1    5    8     3     5    1.0456E+00  1.5790E-01   8.8768E-01  0.000E+00  0.000E+00  0.000E+00  1.06362E+03  1.164E+00  6.655E+00  4.991E-02  1.582E+00
   1    6    8     3     6    8.8768E-01  5.5980E-02   8.3170E-01  0.000E+00  0.000E+00  0.000E+00  1.06158E+03  1.036E+00  6.145E+00  1.844E-02  1.518E+00
   1    5   10     4     1    1.0000E+01  9.0919E-02   9.9091E+00  0.000E+00  0.000E+00  0.000E+00  1.07836E+03  6.368E-01  1.000E+01  2.500E-02  1.212E+00
   1    5    9     4     2    9.9091E+00  1.8158E-01   9.7275E+00  0.000E+00  0.000E+00  0.000E+00  1.07154E+03  6.315E-01  1.000E+01  5.000E-02  1.211E+00
   1    6    8     4     3    9.7275E+00  1.2689E-01   9.6006E+00  0.000E+00  0.000E+00  0.000E+00  1.06381E+03  6.256E-01  1.000E+01  3.500E-02  1.209E+00
   1    6    8     5     1    1.0432E+01  2.2686E-01   1.0205E+01  0.000E+00  0.000E+00  0.000E+00  1.05868E+03  6.790E-01  1.542E+01  6.166E-02  1.226E+00
   1    7    7     5     2    1.0205E+01  2.7894E-01   9.9265E+00  0.000E+00  0.000E+00  0.000E+00  1.05417E+03  6.732E-01  1.519E+01  7.594E-02  1.224E+00
   1    8    7     5     3    9.9265E+00  1.9221E-01   9.7343E+00  0.000E+00  0.000E+00  0.000E+00  1.04992E+03  6.676E-01  1.497E+01  5.241E-02  1.223E+00
   1    8    6     5     4    9.7343E+00  1.3577E-01   9.5985E+00  0.000E+00  0.000E+00  0.000E+00  1.04691E+03  6.637E-01  1.482E+01  3.706E-02  1.221E+00
   1    9    6     6     1    9.5985E+00  2.2097E-01   9.3776E+00  0.000E+00  0.000E+00  0.000E+00  1.04341E+03  6.828E-01  1.200E+01  6.000E-02  1.228E+00
   1   10    7     6     2    9.3776E+00  2.2039E-01   9.1572E+00  0.000E+00  0.000E+00  0.000E+00  1.03885E+03  6.732E-01  1.200E+01  6.000E-02  1.224E+00
   1   11    7     6     3    9.1572E+00  2.1981E-01   8.9374E+00  0.000E+00  0.000E+00  0.000E+00  1.03430E+03  6.636E-01  1.200E+01  6.000E-02  1.221E+00
   1   12    7     6     4    8.9374E+00  2.1923E-01   8.7181E+00  0.000E+00  0.000E+00  0.000E+00  1.02974E+03  6.539E-01  1.200E+01  6.000E-02  1.218E+00
   1   13    7     6     5    8.7181E+00 -7.2547E-02   8.7907E+00  0.000E+00  0.000E+00  0.000E+00  1.02656E+03  6.506E-01  1.200E+01  2.400E-01 -1.008E-01
   1   14    9     7     1    1.5000E+02  1.3678E+00   1.4863E+02  0.000E+00  0.000E+00  0.000E+00  1.03987E+03  2.288E+00  5.529E+01  5.593E-01  8.152E-01
   1   13    8     7     2    1.4863E+02  1.9154E+00   1.4672E+02  0.000E+00  0.000E+00  0.000E+00  1.03478E+03  2.279E+00  5.526E+01  6.148E-01  1.039E+00
   1   13    7     7     3    1.4672E+02  1.5786E+00   1.4514E+02  0.000E+00  0.000E+00  0.000E+00  1.02969E+03  2.270E+00  5.521E+01  5.584E-01  9.423E-01
   1   13    6     8     1    1.5393E+02  9.2534E-01   1.5300E+02  0.000E+00  0.000E+00  0.000E+00  1.02472E+03  2.841E+00  4.120E+01  4.198E-01  7.347E-01
   1   13    5     8     2    1.5300E+02  1.8652E-01   1.5282E+02  0.000E+00  0.000E+00  0.000E+00  1.01846E+03  2.837E+00  4.114E+01  4.192E-01  1.483E-01
   1   13    4     8     3    1.5282E+02 -2.6495E+00   1.5547E+02  0.000E+00  0.000E+00  0.000E+00  1.01222E+03  2.846E+00  4.126E+01  4.205E+00 -2.100E-01
   1   13    3     8     4    1.5547E+02 -3.9035E+00   1.5937E+02  0.000E+00  0.000E+00  0.000E+00  1.00599E+03  2.868E+00  4.159E+01  4.238E+00 -3.070E-01
   1   13    2     8     5    1.5937E+02 -2.9329E+00   1.6230E+02  0.000E+00  0.000E+00  0.000E+00  9.99766E+02  2.891E+00  4.193E+01  4.272E+00 -2.288E-01
   1   13    1     8     6    1.6230E+02 -2.1798E+00   1.6448E+02  0.000E+00  0.000E+00  0.000E+00  9.94784E+02  2.909E+00  4.218E+01  2.579E+00 -2.818E-01
   1    8    6     9     1    2.6388E+01  0.0000E+00   2.6388E+01  0.000E+00  0.000E+00  0.000E+00  1.08281E+03  4.056E+00  4.000E+00  0.000E+00  2.352E+00
   1    8    5     9     2    2.6388E+01  0.0000E+00   2.6388E+01  0.000E+00  0.000E+00  0.000E+00  1.08231E+03  4.056E+00  4.000E+00  0.000E+00  2.352E+00



 UBDSV3 SAVING "           GW ET" ON UNIT  61 AT TIME STEP  5, STRESS PERIOD   7
 UBDSV3 SAVING "    UZF RECHARGE" ON UNIT  61 AT TIME STEP  5, STRESS PERIOD   7
 UBDSV3 SAVING " SURFACE LEAKAGE" ON UNIT  61 AT TIME STEP  5, STRESS PERIOD   7
 UBDSV3 SAVING "       HORT+DUNN" ON UNIT  61 AT TIME STEP  5, STRESS PERIOD   7
 UBDSV3 SAVING "  STORAGE CHANGE" ON UNIT  61 AT TIME STEP  5, STRESS PERIOD   7


UNSATURATED ZONE PACKAGE VOLUMETRIC BUDGET FOR  TIME STEP     5 STRESS PERIOD    7
  ------------------------------------------------------------------------------



     CUMULATIVE VOLUMES      L**3       RATES FOR THIS TIME STEP      L**3/T
     ------------------                 ------------------------

           IN:                                      IN:
           ---                                      ---
        INFILTRATION =    52839659.4258          INFILTRATION =          45.7880

          OUT:                                     OUT:
          ----                                     ----
              UZF ET =    50712248.7444                UZF ET =          23.3175
        UZF RECHARGE =       73224.0000          UZF RECHARGE =       0.0000E+00

            IN - OUT =     2054186.6813              IN - OUT =          22.4705

          STORAGE:                                 STORAGE:
          --------                                 --------
      STORAGE CHANGE =     2054158.7713        STORAGE CHANGE =          22.4705

 PERCENT DISCREPANCY IS DIFFERENCE BETWEEN IN-OUT MINUS CHANGE IN STORAGE
 DIVIDED BY THE AVERAGE OF IN AND OUT TIMES 100

 PERCENT DISCREPANCY =           0.00     PERCENT DISCREPANCY =           0.00






 

            AG WELLS      PERIOD    7   STEP   5
 AG WELL      1   LAYER   1   ROW     6   COL     4   RATE    -3.09197    
 AG WELL      2   LAYER   1   ROW     6   COL     5   RATE    -3.09197    
 AG WELL      3   LAYER   1   ROW     7   COL     4   RATE    -3.09197    
 AG WELL      4   LAYER   1   ROW     7   COL     5   RATE    -3.09197    
 AG WELL      5   LAYER   1   ROW     8   COL     4   RATE    -3.09197    
 AG WELL      6   LAYER   1   ROW     8   COL     5   RATE    -3.09197    
 
 

   DIVERSION SEGMENTS     PERIOD    7   STEP   5
 SEGMENT      9   RATE     26.3882    
 
 

        SW IRRIGATION     PERIOD    7   STEP   5
 SEGMENT      9   ROW     6   COL     4   RATE     4.39812    
 SEGMENT      9   ROW     6   COL     5   RATE     4.39812    
 SEGMENT      9   ROW     7   COL     4   RATE     4.39812    
 SEGMENT      9   ROW     7   COL     5   RATE     4.39812    
 SEGMENT      9   ROW     8   COL     4   RATE     4.39812    
 SEGMENT      9   ROW     8   COL     5   RATE     4.39812    
 
 

        GW IRRIGATION     PERIOD    7   STEP   5
 AG WELL      1   ROW     6   COL     4   RATE     3.09197    
 AG WELL      2   ROW     6   COL     5   RATE     3.09197    
 AG WELL      3   ROW     7   COL     4   RATE     3.09197    
 AG WELL      4   ROW     7   COL     5   RATE     3.09197    
 AG WELL      5   ROW     8   COL     4   RATE     3.09197    
 AG WELL      6   ROW     8   COL     5   RATE     3.09197    
 
1
  VOLUMETRIC BUDGET FOR AGRICULTURAL FIELDS AT  END OF TIME STEP    5, STRESS PERIOD   7
  ------------------------------------------------------------------------------

     CUMULATIVE VOLUMES      L**3       RATES FOR THIS TIME STEP      L**3/T
     ------------------                 ------------------------

           IN:                                      IN:
           ---                                      ---
               AG WELLS  =     5915069.0000                 AG WELLS  =          18.5518
      DIVERSION SEGMENTS =    35334544.0000        DIVERSION SEGMENTS =          26.3882
           GW IRRIGATION =           0.0000             GW IRRIGATION =           0.0000
           SW IRRIGATION =           0.0000             SW IRRIGATION =           0.0000
        SYSTEM LOSSES GW =           0.0000          SYSTEM LOSSES GW =           0.0000
        SYSTEM LOSSES SW =           0.0000          SYSTEM LOSSES SW =           0.0000

                TOTAL IN =    41249612.0000                  TOTAL IN =          44.9400

          OUT:                                     OUT:
          ----                                     ----
               AG WELLS  =           0.0000                 AG WELLS  =           0.0000
      DIVERSION SEGMENTS =           0.0000        DIVERSION SEGMENTS =           0.0000
           GW IRRIGATION =     5915069.0000             GW IRRIGATION =          18.5518
           SW IRRIGATION =    35335252.0000             SW IRRIGATION =          26.3887
        SYSTEM LOSSES GW =           0.0000          SYSTEM LOSSES GW =           0.0000
        SYSTEM LOSSES SW =           0.0000          SYSTEM LOSSES SW =           0.0000

               TOTAL OUT =    41250320.0000                 TOTAL OUT =          44.9405

                IN - OUT =        -708.0000                  IN - OUT =      -5.2643E-04

     PERCENT DISCREPANCY =          -0.00         PERCENT DISCREPANCY =          -0.00



1
  VOLUMETRIC BUDGET FOR ENTIRE MODEL AT END OF TIME STEP    5, STRESS PERIOD   7
  ------------------------------------------------------------------------------

     CUMULATIVE VOLUMES      L**3       RATES FOR THIS TIME STEP      L**3/T
     ------------------                 ------------------------

           IN:                                      IN:
           ---                                      ---
             STORAGE     =    14403220.0000               STORAGE     =          19.9251
       CONSTANT HEAD     =           0.0000         CONSTANT HEAD     =           0.0000
     HEAD DEP BOUNDS     =     3936391.0000       HEAD DEP BOUNDS     =           0.2879
      STREAM LEAKAGE     =   161575968.0000        STREAM LEAKAGE     =          11.9924
        UZF RECHARGE     =       73223.9531          UZF RECHARGE     =           0.0000
               GW ET     =           0.0000                 GW ET     =           0.0000
     SURFACE LEAKAGE     =           0.0000       SURFACE LEAKAGE     =           0.0000
           AG WELLS      =           0.0000             AG WELLS      =           0.0000

                TOTAL IN =   179988800.0000                  TOTAL IN =          32.2054

          OUT:                                     OUT:
          ----                                     ----
             STORAGE     =    30816666.0000               STORAGE     =           1.6254
       CONSTANT HEAD     =           0.0000         CONSTANT HEAD     =           0.0000
     HEAD DEP BOUNDS     =     3945573.7500       HEAD DEP BOUNDS     =           0.2899
      STREAM LEAKAGE     =   139316592.0000        STREAM LEAKAGE     =          11.7382
        UZF RECHARGE     =           0.0000          UZF RECHARGE     =           0.0000
               GW ET     =           0.0000                 GW ET     =           0.0000
     SURFACE LEAKAGE     =           0.0000       SURFACE LEAKAGE     =           0.0000
           AG WELLS      =     5915069.0000             AG WELLS      =          18.5518

               TOTAL OUT =   179993904.0000                 TOTAL OUT =          32.2054

                IN - OUT =       -5104.0000                  IN - OUT =       4.9591E-05

     PERCENT DISCREPANCY =          -0.00         PERCENT DISCREPANCY =           0.00






         TIME SUMMARY AT END OF TIME STEP    5 IN STRESS PERIOD    7
                    SECONDS     MINUTES      HOURS       DAYS        YEARS
                    -----------------------------------------------------------
   TIME STEP LENGTH  87667.      1461.1      24.352      1.0147     2.77799E-03
 STRESS PERIOD TIME 4.38333E+05  7305.6      121.76      5.0733     1.38899E-02
         TOTAL TIME 1.36747E+07 2.27912E+05  3798.5      158.27     0.43333    
1
 
 SOLVING FOR HEAD 
                                                   Max.-Head-Change                         Max.-Flux-Residual
  Residual-Control   Outer-Iter.   Inner-Iter.     Column Row Layer    Maximum-Head-Change  Column Row Layer    Maximum-Flux-Residual          L2-NORM 
          0                 1           2             5    6     1       0.5407536594E-02       5    6    1         0.2937140109E+00      0.7708820371E+00
          0                 2           2             7   13     1      -0.2342790892E-02       7   13    1        -0.1299478394E+00      0.1494236120E+00
          0                 3           2             7   13     1       0.1594903502E-03       7   13    1         0.9093836736E-02      0.1043933718E-01
          0                 4           1             7   13     1      -0.6342895967E-05       7   13    1        -0.3717474124E-03      0.4256751479E-03

    ------------------------------------------------
       NWT REQUIRED            4 OUTER ITERATIONS 
       AND A TOTAL OF          7 INNER ITERATIONS.
    ------------------------------------------------

 NO OUTPUT CONTROL FOR STRESS PERIOD    7   TIME STEP    6
 
 SOLVING FOR HEAD 
                                                   Max.-Head-Change                         Max.-Flux-Residual
  Residual-Control   Outer-Iter.   Inner-Iter.     Column Row Layer    Maximum-Head-Change  Column Row Layer    Maximum-Flux-Residual          L2-NORM 
          0                 1           2             5    6     1       0.5179524207E-02       5    6    1         0.2810380103E+00      0.7325810772E+00
          0                 2           2             4    7     1      -0.6996391178E-01       5    6    1        -0.3773103945E+01      0.9266980476E+01
          0                 3           2             4    7     1       0.1659950720E-01       5    6    1         0.9171048287E+00      0.2247599283E+01
          0                 4           2             4    7     1      -0.6605141350E-03       5    6    1        -0.3749771191E-01      0.9212531645E-01
          0                 5           1             4    7     1       0.8144423075E-05       4    8    1         0.4746904576E-03      0.1202310278E-02

    ------------------------------------------------
       NWT REQUIRED            5 OUTER ITERATIONS 
       AND A TOTAL OF          9 INNER ITERATIONS.
    ------------------------------------------------

 NO OUTPUT CONTROL FOR STRESS PERIOD    7   TIME STEP    7
 
 SOLVING FOR HEAD 
                                                   Max.-Head-Change                         Max.-Flux-Residual
  Residual-Control   Outer-Iter.   Inner-Iter.     Column Row Layer    Maximum-Head-Change  Column Row Layer    Maximum-Flux-Residual          L2-NORM 
          0                 1           2             5    6     1       0.6550307627E-02       5    6    1         0.3562240334E+00      0.8911620220E+00
          0                 2           2             7   13     1      -0.2346375140E-02       7   13    1        -0.1301460604E+00      0.1559809518E+00
          0                 3           2             7   13     1       0.1597335997E-03       7   13    1         0.9107664021E-02      0.1089484581E-01
          0                 4           1             7   13     1      -0.6353283930E-05       7   13    1        -0.3723507393E-03      0.4442069355E-03

    ------------------------------------------------
       NWT REQUIRED            4 OUTER ITERATIONS 
       AND A TOTAL OF          7 INNER ITERATIONS.
    ------------------------------------------------

 NO OUTPUT CONTROL FOR STRESS PERIOD    7   TIME STEP    8
 
 SOLVING FOR HEAD 
                                                   Max.-Head-Change                         Max.-Flux-Residual
  Residual-Control   Outer-Iter.   Inner-Iter.     Column Row Layer    Maximum-Head-Change  Column Row Layer    Maximum-Flux-Residual          L2-NORM 
          0                 1           2             5    6     1       0.6266281379E-02       5    6    1         0.3404385541E+00      0.8472134885E+00
          0                 2           2             4    7     1      -0.7000657551E-01       5    6    1        -0.3779043997E+01      0.9278392881E+01
          0                 3           2             4    7     1       0.1660208277E-01       5    6    1         0.9175228822E+00      0.2247799920E+01
          0                 4           2             4    7     1      -0.6606141226E-03       5    6    1        -0.3751502779E-01      0.9211989145E-01
          0                 5           1             4    7     1       0.8145656134E-05       4    7    1         0.4747291134E-03      0.1202186333E-02

    ------------------------------------------------
       NWT REQUIRED            5 OUTER ITERATIONS 
       AND A TOTAL OF          9 INNER ITERATIONS.
    ------------------------------------------------

 NO OUTPUT CONTROL FOR STRESS PERIOD    7   TIME STEP    9
 
 SOLVING FOR HEAD 
                                                   Max.-Head-Change                         Max.-Flux-Residual
  Residual-Control   Outer-Iter.   Inner-Iter.     Column Row Layer    Maximum-Head-Change  Column Row Layer    Maximum-Flux-Residual          L2-NORM 
          0                 1           2             5    6     1       0.7584414358E-02       5    6    1         0.4127039126E+00      0.1006648288E+01
          0                 2           2             7   13     1      -0.2349725676E-02       7   13    1        -0.1303314051E+00      0.1628742349E+00
          0                 3           2             7   13     1       0.1599617421E-03       7   13    1         0.9120637989E-02      0.1137477427E-01
          0                 4           1             7   13     1      -0.6361309015E-05       7   13    1        -0.3728201741E-03      0.4636234264E-03

    ------------------------------------------------
       NWT REQUIRED            4 OUTER ITERATIONS 
       AND A TOTAL OF          7 INNER ITERATIONS.
    ------------------------------------------------

 OUTPUT CONTROL FOR STRESS PERIOD    7   TIME STEP   10
    PRINT BUDGET
    SAVE BUDGET
 UBDSV1 SAVING "         STORAGE" ON UNIT 102 AT TIME STEP 10, STRESS PERIOD   7
 UBDSV2 SAVING "   CONSTANT HEAD" ON UNIT 102 AT TIME STEP 10, STRESS PERIOD   7
 UBDSV1 SAVING "FLOW RIGHT FACE " ON UNIT 102 AT TIME STEP 10, STRESS PERIOD   7
 UBDSV1 SAVING "FLOW FRONT FACE " ON UNIT 102 AT TIME STEP 10, STRESS PERIOD   7

  HEAD DEP BOUNDS   PERIOD    7   STEP    10
 BOUNDARY      1   LAYER   1   ROW    13   COL     1   RATE   -0.289800    
 BOUNDARY      2   LAYER   1   ROW    14   COL     9   RATE    0.287939    



 STREAM LISTING     PERIOD      7   STEP       10

 LAYER ROW COL. STREAM  RCH.  FLOW INTO     FLOW TO   FLOW OUT OF   OVRLND.     DIRECT     STREAM       STREAM     STREAM     STREAM   STREAMBED  STREAMBED
                SEG.NO.  NO.  STRM. RCH.    AQUIFER    STRM. RCH.    RUNOFF     PRECIP       ET          HEAD       DEPTH      WIDTH   CONDCTNC.   GRADIENT

   1    1    1     1     1    3.1125E+01  2.7165E-01   3.0853E+01  0.000E+00  0.000E+00  0.000E+00  1.09431E+03  1.259E+00  1.417E+01  6.378E-02  1.420E+00
   1    2    2     1     2    3.0853E+01  4.2045E-01   3.0433E+01  0.000E+00  0.000E+00  0.000E+00  1.08931E+03  1.256E+00  1.411E+01  9.879E-02  1.419E+00
   1    3    3     1     3    3.0433E+01  3.5834E-01   3.0075E+01  0.000E+00  0.000E+00  0.000E+00  1.08367E+03  1.252E+00  1.404E+01  8.427E-02  1.417E+00
   1    3    4     1     4    3.0075E+01  3.2976E-01   2.9745E+01  0.000E+00  0.000E+00  0.000E+00  1.07866E+03  1.249E+00  1.398E+01  7.761E-02  1.416E+00
   1    4    5     2     1    2.7745E+01  3.3390E-01   2.7411E+01  0.000E+00  0.000E+00  0.000E+00  1.07321E+03  1.281E+00  1.200E+01  7.800E-02  1.427E+00
   1    5    6     2     2    2.7411E+01  2.5635E-01   2.7155E+01  0.000E+00  0.000E+00  0.000E+00  1.06778E+03  1.273E+00  1.200E+01  6.000E-02  1.424E+00
   1    6    6     2     3    2.7155E+01  2.5592E-01   2.6899E+01  0.000E+00  0.000E+00  0.000E+00  1.06306E+03  1.265E+00  1.200E+01  6.000E-02  1.422E+00
   1    7    6     2     4    2.6899E+01  2.5549E-01   2.6643E+01  0.000E+00  0.000E+00  0.000E+00  1.05833E+03  1.258E+00  1.200E+01  6.000E-02  1.419E+00
   1    8    6     2     5    2.6643E+01  2.5506E-01   2.6388E+01  0.000E+00  0.000E+00  0.000E+00  1.05361E+03  1.251E+00  1.200E+01  6.000E-02  1.417E+00
   1    3    5     3     1    2.0000E+00  2.8252E-01   1.7175E+00  0.000E+00  0.000E+00  0.000E+00  1.07555E+03  1.909E+00  9.636E+00  7.227E-02  1.955E+00
   1    3    6     3     2    1.7175E+00  2.4905E-01   1.4684E+00  0.000E+00  0.000E+00  0.000E+00  1.07264E+03  1.727E+00  8.909E+00  6.682E-02  1.864E+00
   1    3    7     3     3    1.4684E+00  1.9718E-01   1.2712E+00  0.000E+00  0.000E+00  0.000E+00  1.06987E+03  1.555E+00  8.218E+00  5.547E-02  1.777E+00
   1    4    8     3     4    1.2712E+00  2.2567E-01   1.0456E+00  0.000E+00  0.000E+00  0.000E+00  1.06682E+03  1.364E+00  7.455E+00  6.709E-02  1.682E+00
   1    5    8     3     5    1.0456E+00  1.5790E-01   8.8768E-01  0.000E+00  0.000E+00  0.000E+00  1.06362E+03  1.164E+00  6.655E+00  4.991E-02  1.582E+00
   1    6    8     3     6    8.8768E-01  5.5980E-02   8.3170E-01  0.000E+00  0.000E+00  0.000E+00  1.06158E+03  1.036E+00  6.145E+00  1.844E-02  1.518E+00
   1    5   10     4     1    1.0000E+01  9.0919E-02   9.9091E+00  0.000E+00  0.000E+00  0.000E+00  1.07836E+03  6.368E-01  1.000E+01  2.500E-02  1.212E+00
   1    5    9     4     2    9.9091E+00  1.8158E-01   9.7275E+00  0.000E+00  0.000E+00  0.000E+00  1.07154E+03  6.315E-01  1.000E+01  5.000E-02  1.211E+00
   1    6    8     4     3    9.7275E+00  1.2689E-01   9.6006E+00  0.000E+00  0.000E+00  0.000E+00  1.06381E+03  6.256E-01  1.000E+01  3.500E-02  1.209E+00
   1    6    8     5     1    1.0432E+01  2.2686E-01   1.0205E+01  0.000E+00  0.000E+00  0.000E+00  1.05868E+03  6.790E-01  1.542E+01  6.166E-02  1.226E+00
   1    7    7     5     2    1.0205E+01  2.7894E-01   9.9265E+00  0.000E+00  0.000E+00  0.000E+00  1.05417E+03  6.732E-01  1.519E+01  7.594E-02  1.224E+00
   1    8    7     5     3    9.9265E+00  1.9221E-01   9.7343E+00  0.000E+00  0.000E+00  0.000E+00  1.04992E+03  6.676E-01  1.497E+01  5.241E-02  1.223E+00
   1    8    6     5     4    9.7343E+00  1.3577E-01   9.5985E+00  0.000E+00  0.000E+00  0.000E+00  1.04691E+03  6.637E-01  1.482E+01  3.706E-02  1.221E+00
   1    9    6     6     1    3.5987E+01  2.7095E-01   3.5716E+01  0.000E+00  0.000E+00  0.000E+00  1.04424E+03  1.516E+00  1.200E+01  6.000E-02  1.505E+00
   1   10    7     6     2    3.5716E+01  2.7054E-01   3.5445E+01  0.000E+00  0.000E+00  0.000E+00  1.03969E+03  1.509E+00  1.200E+01  6.000E-02  1.503E+00
   1   11    7     6     3    3.5445E+01  2.7013E-01   3.5175E+01  0.000E+00  0.000E+00  0.000E+00  1.03514E+03  1.502E+00  1.200E+01  6.000E-02  1.501E+00
   1   12    7     6     4    3.5175E+01  2.6971E-01   3.4905E+01  0.000E+00  0.000E+00  0.000E+00  1.03059E+03  1.495E+00  1.200E+01  6.000E-02  1.498E+00
   1   13    7     6     5    3.4905E+01  1.2939E-02   3.4892E+01  0.000E+00  0.000E+00  0.000E+00  1.02740E+03  1.492E+00  1.200E+01  2.400E-02  1.797E-01
   1   14    9     7     1    1.5000E+02  1.3678E+00   1.4863E+02  0.000E+00  0.000E+00  0.000E+00  1.03987E+03  2.288E+00  5.529E+01  5.593E-01  8.152E-01
   1   13    8     7     2    1.4863E+02  1.9152E+00   1.4672E+02  0.000E+00  0.000E+00  0.000E+00  1.03478E+03  2.279E+00  5.526E+01  6.148E-01  1.038E+00
   1   13    7     7     3    1.4672E+02  1.5788E+00   1.4514E+02  0.000E+00  0.000E+00  0.000E+00  1.02969E+03  2.270E+00  5.521E+01  5.584E-01  9.424E-01
   1   13    6     8     1    1.8003E+02  1.0579E+00   1.7897E+02  0.000E+00  0.000E+00  0.000E+00  1.02489E+03  3.013E+00  4.369E+01  4.452E-01  7.921E-01
   1   13    5     8     2    1.7897E+02  2.7409E-01   1.7870E+02  0.000E+00  0.000E+00  0.000E+00  1.01863E+03  3.009E+00  4.363E+01  4.446E-01  2.055E-01
   1   13    4     8     3    1.7870E+02 -2.0388E+00   1.8074E+02  0.000E+00  0.000E+00  0.000E+00  1.01239E+03  3.014E+00  4.371E+01  4.454E+00 -1.526E-01
   1   13    3     8     4    1.8074E+02 -3.3770E+00   1.8411E+02  0.000E+00  0.000E+00  0.000E+00  1.00616E+03  3.031E+00  4.395E+01  4.479E+00 -2.513E-01
   1   13    2     8     5    1.8411E+02 -2.3619E+00   1.8648E+02  0.000E+00  0.000E+00  0.000E+00  9.99924E+02  3.049E+00  4.421E+01  4.505E+00 -1.747E-01
   1   13    1     8     6    1.8648E+02 -1.8709E+00   1.8835E+02  0.000E+00  0.000E+00  0.000E+00  9.94937E+02  3.062E+00  4.440E+01  2.715E+00 -2.297E-01
   1    8    6     9     1    0.0000E+00  0.0000E+00   0.0000E+00  0.000E+00  0.000E+00  0.000E+00  1.07875E+03  0.000E+00  4.000E+00  0.000E+00  1.000E+00
   1    8    5     9     2    0.0000E+00  0.0000E+00   0.0000E+00  0.000E+00  0.000E+00  0.000E+00  1.07825E+03  0.000E+00  4.000E+00  0.000E+00  1.000E+00



 UBDSV3 SAVING "           GW ET" ON UNIT  61 AT TIME STEP 10, STRESS PERIOD   7
 UBDSV3 SAVING "    UZF RECHARGE" ON UNIT  61 AT TIME STEP 10, STRESS PERIOD   7
 UBDSV3 SAVING " SURFACE LEAKAGE" ON UNIT  61 AT TIME STEP 10, STRESS PERIOD   7
 UBDSV3 SAVING "       HORT+DUNN" ON UNIT  61 AT TIME STEP 10, STRESS PERIOD   7
 UBDSV3 SAVING "  STORAGE CHANGE" ON UNIT  61 AT TIME STEP 10, STRESS PERIOD   7


UNSATURATED ZONE PACKAGE VOLUMETRIC BUDGET FOR  TIME STEP    10 STRESS PERIOD    7
  ------------------------------------------------------------------------------



     CUMULATIVE VOLUMES      L**3       RATES FOR THIS TIME STEP      L**3/T
     ------------------                 ------------------------

           IN:                                      IN:
           ---                                      ---
        INFILTRATION =    61090720.1548          INFILTRATION =           0.8475

          OUT:                                     OUT:
          ----                                     ----
              UZF ET =    60933229.6613                UZF ET =          23.3180
        UZF RECHARGE =       73224.0000          UZF RECHARGE =       0.0000E+00

            IN - OUT =       84266.4935              IN - OUT =         -22.4705

          STORAGE:                                 STORAGE:
          --------                                 --------
      STORAGE CHANGE =       84242.0890        STORAGE CHANGE =         -22.4705

 PERCENT DISCREPANCY IS DIFFERENCE BETWEEN IN-OUT MINUS CHANGE IN STORAGE
 DIVIDED BY THE AVERAGE OF IN AND OUT TIMES 100

 PERCENT DISCREPANCY =           0.00     PERCENT DISCREPANCY =          -0.00






 

            AG WELLS      PERIOD    7   STEP  10
 AG WELL      1   LAYER   1   ROW     6   COL     4   RATE     0.00000    
 AG WELL      2   LAYER   1   ROW     6   COL     5   RATE     0.00000    
 AG WELL      3   LAYER   1   ROW     7   COL     4   RATE     0.00000    
 AG WELL      4   LAYER   1   ROW     7   COL     5   RATE     0.00000    
 AG WELL      5   LAYER   1   ROW     8   COL     4   RATE     0.00000    
 AG WELL      6   LAYER   1   ROW     8   COL     5   RATE     0.00000    
 
 

   DIVERSION SEGMENTS     PERIOD    7   STEP  10
 SEGMENT      9   RATE     0.00000    
 
 

        SW IRRIGATION     PERIOD    7   STEP  10
 SEGMENT      9   ROW     6   COL     4   RATE     0.00000    
 SEGMENT      9   ROW     6   COL     5   RATE     0.00000    
 SEGMENT      9   ROW     7   COL     4   RATE     0.00000    
 SEGMENT      9   ROW     7   COL     5   RATE     0.00000    
 SEGMENT      9   ROW     8   COL     4   RATE     0.00000    
 SEGMENT      9   ROW     8   COL     5   RATE     0.00000    
 
 

        GW IRRIGATION     PERIOD    7   STEP  10
 AG WELL      1   ROW     6   COL     4   RATE     0.00000    
 AG WELL      2   ROW     6   COL     5   RATE     0.00000    
 AG WELL      3   ROW     7   COL     4   RATE     0.00000    
 AG WELL      4   ROW     7   COL     5   RATE     0.00000    
 AG WELL      5   ROW     8   COL     4   RATE     0.00000    
 AG WELL      6   ROW     8   COL     5   RATE     0.00000    
 
1
  VOLUMETRIC BUDGET FOR AGRICULTURAL FIELDS AT  END OF TIME STEP   10, STRESS PERIOD   7
  ------------------------------------------------------------------------------

     CUMULATIVE VOLUMES      L**3       RATES FOR THIS TIME STEP      L**3/T
     ------------------                 ------------------------

           IN:                                      IN:
           ---                                      ---
               AG WELLS  =     9167820.0000                 AG WELLS  =           0.0000
      DIVERSION SEGMENTS =    39961272.0000        DIVERSION SEGMENTS =           0.0000
           GW IRRIGATION =           0.0000             GW IRRIGATION =           0.0000
           SW IRRIGATION =           0.0000             SW IRRIGATION =           0.0000
        SYSTEM LOSSES GW =           0.0000          SYSTEM LOSSES GW =           0.0000
        SYSTEM LOSSES SW =           0.0000          SYSTEM LOSSES SW =           0.0000

                TOTAL IN =    49129092.0000                  TOTAL IN =           0.0000

          OUT:                                     OUT:
          ----                                     ----
               AG WELLS  =           0.0000                 AG WELLS  =           0.0000
      DIVERSION SEGMENTS =           0.0000        DIVERSION SEGMENTS =           0.0000
           GW IRRIGATION =     9167820.0000             GW IRRIGATION =           0.0000
           SW IRRIGATION =    39962076.0000             SW IRRIGATION =           0.0000
        SYSTEM LOSSES GW =           0.0000          SYSTEM LOSSES GW =           0.0000
        SYSTEM LOSSES SW =           0.0000          SYSTEM LOSSES SW =           0.0000

               TOTAL OUT =    49129896.0000                 TOTAL OUT =           0.0000

                IN - OUT =        -804.0000                  IN - OUT =           0.0000

     PERCENT DISCREPANCY =          -0.00         PERCENT DISCREPANCY =           0.00



1
  VOLUMETRIC BUDGET FOR ENTIRE MODEL AT END OF TIME STEP   10, STRESS PERIOD   7
  ------------------------------------------------------------------------------

     CUMULATIVE VOLUMES      L**3       RATES FOR THIS TIME STEP      L**3/T
     ------------------                 ------------------------

           IN:                                      IN:
           ---                                      ---
             STORAGE     =    18172760.0000               STORAGE     =           1.3602
       CONSTANT HEAD     =           0.0000         CONSTANT HEAD     =           0.0000
     HEAD DEP BOUNDS     =     4062603.7500       HEAD DEP BOUNDS     =           0.2879
      STREAM LEAKAGE     =   166946800.0000        STREAM LEAKAGE     =          12.4265
        UZF RECHARGE     =       73223.9531          UZF RECHARGE     =           0.0000
               GW ET     =           0.0000                 GW ET     =           0.0000
     SURFACE LEAKAGE     =           0.0000       SURFACE LEAKAGE     =           0.0000
           AG WELLS      =           0.0000             AG WELLS      =           0.0000

                TOTAL IN =   189255376.0000                  TOTAL IN =          14.0747

          OUT:                                     OUT:
          ----                                     ----
             STORAGE     =    32108868.0000               STORAGE     =           4.1363
       CONSTANT HEAD     =           0.0000         CONSTANT HEAD     =           0.0000
     HEAD DEP BOUNDS     =     4072619.0000       HEAD DEP BOUNDS     =           0.2898
      STREAM LEAKAGE     =   143911168.0000        STREAM LEAKAGE     =           9.6486
        UZF RECHARGE     =           0.0000          UZF RECHARGE     =           0.0000
               GW ET     =           0.0000                 GW ET     =           0.0000
     SURFACE LEAKAGE     =           0.0000       SURFACE LEAKAGE     =           0.0000
           AG WELLS      =     9167820.0000             AG WELLS      =           0.0000

               TOTAL OUT =   189260480.0000                 TOTAL OUT =          14.0747

                IN - OUT =       -5104.0000                  IN - OUT =       1.7166E-05

     PERCENT DISCREPANCY =          -0.00         PERCENT DISCREPANCY =           0.00






         TIME SUMMARY AT END OF TIME STEP   10 IN STRESS PERIOD    7
                    SECONDS     MINUTES      HOURS       DAYS        YEARS
                    -----------------------------------------------------------
   TIME STEP LENGTH  87667.      1461.1      24.352      1.0147     2.77799E-03
 STRESS PERIOD TIME 8.76667E+05  14611.      243.52      10.147     2.77799E-02
         TOTAL TIME 1.41131E+07 2.35218E+05  3920.3      163.35     0.44722    
1
 
 SOLVING FOR HEAD 
                                                   Max.-Head-Change                         Max.-Flux-Residual
  Residual-Control   Outer-Iter.   Inner-Iter.     Column Row Layer    Maximum-Head-Change  Column Row Layer    Maximum-Flux-Residual          L2-NORM 
          0                 1           2             5    6     1       0.7251127463E-02       5    6    1         0.3941883866E+00      0.9576774123E+00
          0                 2           2             4    7     1      -0.7005180577E-01       5    6    1        -0.3784418975E+01      0.9289008529E+01
          0                 3           2             4    7     1       0.1660560137E-01       5    6    1         0.9179011062E+00      0.2249294779E+01
          0                 4           2             4    7     1      -0.6607541127E-03       5    6    1        -0.3753068805E-01      0.9218024490E-01
          0                 5           1             4    7     1       0.8147382059E-05       4    8    1         0.4748890935E-03      0.1202537239E-02

    ------------------------------------------------
       NWT REQUIRED            5 OUTER ITERATIONS 
       AND A TOTAL OF          9 INNER ITERATIONS.
    ------------------------------------------------

 NO OUTPUT CONTROL FOR STRESS PERIOD    7   TIME STEP   11
 
 SOLVING FOR HEAD 
                                                   Max.-Head-Change                         Max.-Flux-Residual
  Residual-Control   Outer-Iter.   Inner-Iter.     Column Row Layer    Maximum-Head-Change  Column Row Layer    Maximum-Flux-Residual          L2-NORM 
          0                 1           2             5    6     1       0.8522852525E-02       5    6    1         0.4638831738E+00      0.1115808397E+01
          0                 2           2             7   13     1      -0.2352825653E-02       7   13    1        -0.1305029045E+00      0.1698615151E+00
          0                 3           2             7   13     1       0.1601722246E-03       7   13    1         0.9132607530E-02      0.1186126894E-01
          0                 4           1             7   13     1      -0.6369696751E-05       7   13    1        -0.3733097028E-03      0.4831546845E-03

    ------------------------------------------------
       NWT REQUIRED            4 OUTER ITERATIONS 
       AND A TOTAL OF          7 INNER ITERATIONS.
    ------------------------------------------------

 NO OUTPUT CONTROL FOR STRESS PERIOD    7   TIME STEP   12
 
 SOLVING FOR HEAD 
                                                   Max.-Head-Change                         Max.-Flux-Residual
  Residual-Control   Outer-Iter.   Inner-Iter.     Column Row Layer    Maximum-Head-Change  Column Row Layer    Maximum-Flux-Residual          L2-NORM 
          0                 1           2             5    6     1       0.8146106529E-02       5    6    1         0.4429613324E+00      0.1062327074E+01
          0                 2           2             4    7     1      -0.7009803637E-01       5    6    1        -0.3789296262E+01      0.9298938030E+01
          0                 3           2             4    7     1       0.1660876057E-01       5    6    1         0.9182442531E+00      0.2249968145E+01
          0                 4           2             4    7     1      -0.6608798173E-03       5    6    1        -0.3754489055E-01      0.9220714277E-01
          0                 5           1             4    7     1       0.8148931896E-05       5    6    1         0.4750332032E-03      0.1202679546E-02

    ------------------------------------------------
       NWT REQUIRED            5 OUTER ITERATIONS 
       AND A TOTAL OF          9 INNER ITERATIONS.
    ------------------------------------------------

 NO OUTPUT CONTROL FOR STRESS PERIOD    7   TIME STEP   13
 
 SOLVING FOR HEAD 
                                                   Max.-Head-Change                         Max.-Flux-Residual
  Residual-Control   Outer-Iter.   Inner-Iter.     Column Row Layer    Maximum-Head-Change  Column Row Layer    Maximum-Flux-Residual          L2-NORM 
          0                 1           2             5    6     1       0.9377107045E-02       5    6    1         0.5104028121E+00      0.1218142950E+01
          0                 2           2             7   13     1      -0.2355724524E-02       7   13    1        -0.1306632960E+00      0.1767804913E+00
          0                 3           2             7   13     1       0.1603695188E-03       7   13    1         0.9143831914E-02      0.1234445153E-01
          0                 4           1             7   13     1      -0.6378223331E-05       7   13    1        -0.3738091957E-03      0.5058339208E-03

    ------------------------------------------------
       NWT REQUIRED            4 OUTER ITERATIONS 
       AND A TOTAL OF          7 INNER ITERATIONS.
    ------------------------------------------------

 NO OUTPUT CONTROL FOR STRESS PERIOD    7   TIME STEP   14
 
 SOLVING FOR HEAD 
                                                   Max.-Head-Change                         Max.-Flux-Residual
  Residual-Control   Outer-Iter.   Inner-Iter.     Column Row Layer    Maximum-Head-Change  Column Row Layer    Maximum-Flux-Residual          L2-NORM 
          0                 1           2             5    6     1       0.8961873452E-02       5    6    1         0.4873528812E+00      0.1160676935E+01
          0                 2           2             4    7     1      -0.7014539078E-01       5    6    1        -0.3793735408E+01      0.9308250684E+01
          0                 3           2             4    7     1       0.1661199671E-01       5    6    1         0.9185565224E+00      0.2250598313E+01
          0                 4           2             4    7     1      -0.6610085847E-03       5    6    1        -0.3755781007E-01      0.9223275802E-01
          0                 5           1             4    7     1       0.8150519706E-05       5    6    1         0.4752069617E-03      0.1203272317E-02

    ------------------------------------------------
       NWT REQUIRED            5 OUTER ITERATIONS 
       AND A TOTAL OF          9 INNER ITERATIONS.
    ------------------------------------------------

 OUTPUT CONTROL FOR STRESS PERIOD    7   TIME STEP   15
    PRINT BUDGET
    SAVE BUDGET
 UBDSV1 SAVING "         STORAGE" ON UNIT 102 AT TIME STEP 15, STRESS PERIOD   7
 UBDSV2 SAVING "   CONSTANT HEAD" ON UNIT 102 AT TIME STEP 15, STRESS PERIOD   7
 UBDSV1 SAVING "FLOW RIGHT FACE " ON UNIT 102 AT TIME STEP 15, STRESS PERIOD   7
 UBDSV1 SAVING "FLOW FRONT FACE " ON UNIT 102 AT TIME STEP 15, STRESS PERIOD   7

  HEAD DEP BOUNDS   PERIOD    7   STEP    15
 BOUNDARY      1   LAYER   1   ROW    13   COL     1   RATE   -0.289536    
 BOUNDARY      2   LAYER   1   ROW    14   COL     9   RATE    0.287942    



 STREAM LISTING     PERIOD      7   STEP       15

 LAYER ROW COL. STREAM  RCH.  FLOW INTO     FLOW TO   FLOW OUT OF   OVRLND.     DIRECT     STREAM       STREAM     STREAM     STREAM   STREAMBED  STREAMBED
                SEG.NO.  NO.  STRM. RCH.    AQUIFER    STRM. RCH.    RUNOFF     PRECIP       ET          HEAD       DEPTH      WIDTH   CONDCTNC.   GRADIENT

   1    1    1     1     1    3.1125E+01  2.7165E-01   3.0853E+01  0.000E+00  0.000E+00  0.000E+00  1.09431E+03  1.259E+00  1.417E+01  6.378E-02  1.420E+00
   1    2    2     1     2    3.0853E+01  4.2045E-01   3.0433E+01  0.000E+00  0.000E+00  0.000E+00  1.08931E+03  1.256E+00  1.411E+01  9.879E-02  1.419E+00
   1    3    3     1     3    3.0433E+01  3.5834E-01   3.0075E+01  0.000E+00  0.000E+00  0.000E+00  1.08367E+03  1.252E+00  1.404E+01  8.427E-02  1.417E+00
   1    3    4     1     4    3.0075E+01  3.2976E-01   2.9745E+01  0.000E+00  0.000E+00  0.000E+00  1.07866E+03  1.249E+00  1.398E+01  7.761E-02  1.416E+00
   1    4    5     2     1    2.7745E+01  3.3390E-01   2.7411E+01  0.000E+00  0.000E+00  0.000E+00  1.07321E+03  1.281E+00  1.200E+01  7.800E-02  1.427E+00
   1    5    6     2     2    2.7411E+01  2.5635E-01   2.7155E+01  0.000E+00  0.000E+00  0.000E+00  1.06778E+03  1.273E+00  1.200E+01  6.000E-02  1.424E+00
   1    6    6     2     3    2.7155E+01  2.5592E-01   2.6899E+01  0.000E+00  0.000E+00  0.000E+00  1.06306E+03  1.265E+00  1.200E+01  6.000E-02  1.422E+00
   1    7    6     2     4    2.6899E+01  2.5549E-01   2.6643E+01  0.000E+00  0.000E+00  0.000E+00  1.05833E+03  1.258E+00  1.200E+01  6.000E-02  1.419E+00
   1    8    6     2     5    2.6643E+01  2.5506E-01   2.6388E+01  0.000E+00  0.000E+00  0.000E+00  1.05361E+03  1.251E+00  1.200E+01  6.000E-02  1.417E+00
   1    3    5     3     1    2.0000E+00  2.8252E-01   1.7175E+00  0.000E+00  0.000E+00  0.000E+00  1.07555E+03  1.909E+00  9.636E+00  7.227E-02  1.955E+00
   1    3    6     3     2    1.7175E+00  2.4905E-01   1.4684E+00  0.000E+00  0.000E+00  0.000E+00  1.07264E+03  1.727E+00  8.909E+00  6.682E-02  1.864E+00
   1    3    7     3     3    1.4684E+00  1.9718E-01   1.2712E+00  0.000E+00  0.000E+00  0.000E+00  1.06987E+03  1.555E+00  8.218E+00  5.547E-02  1.777E+00
   1    4    8     3     4    1.2712E+00  2.2567E-01   1.0456E+00  0.000E+00  0.000E+00  0.000E+00  1.06682E+03  1.364E+00  7.455E+00  6.709E-02  1.682E+00
   1    5    8     3     5    1.0456E+00  1.5790E-01   8.8768E-01  0.000E+00  0.000E+00  0.000E+00  1.06362E+03  1.164E+00  6.655E+00  4.991E-02  1.582E+00
   1    6    8     3     6    8.8768E-01  5.5980E-02   8.3170E-01  0.000E+00  0.000E+00  0.000E+00  1.06158E+03  1.036E+00  6.145E+00  1.844E-02  1.518E+00
   1    5   10     4     1    1.0000E+01  9.0919E-02   9.9091E+00  0.000E+00  0.000E+00  0.000E+00  1.07836E+03  6.368E-01  1.000E+01  2.500E-02  1.212E+00
   1    5    9     4     2    9.9091E+00  1.8158E-01   9.7275E+00  0.000E+00  0.000E+00  0.000E+00  1.07154E+03  6.315E-01  1.000E+01  5.000E-02  1.211E+00
   1    6    8     4     3    9.7275E+00  1.2689E-01   9.6006E+00  0.000E+00  0.000E+00  0.000E+00  1.06381E+03  6.256E-01  1.000E+01  3.500E-02  1.209E+00
   1    6    8     5     1    1.0432E+01  2.2686E-01   1.0205E+01  0.000E+00  0.000E+00  0.000E+00  1.05868E+03  6.790E-01  1.542E+01  6.166E-02  1.226E+00
   1    7    7     5     2    1.0205E+01  2.7894E-01   9.9265E+00  0.000E+00  0.000E+00  0.000E+00  1.05417E+03  6.732E-01  1.519E+01  7.594E-02  1.224E+00
   1    8    7     5     3    9.9265E+00  1.9221E-01   9.7343E+00  0.000E+00  0.000E+00  0.000E+00  1.04992E+03  6.676E-01  1.497E+01  5.241E-02  1.223E+00
   1    8    6     5     4    9.7343E+00  1.3577E-01   9.5985E+00  0.000E+00  0.000E+00  0.000E+00  1.04691E+03  6.637E-01  1.482E+01  3.706E-02  1.221E+00
   1    9    6     6     1    9.5985E+00  2.2097E-01   9.3776E+00  0.000E+00  0.000E+00  0.000E+00  1.04341E+03  6.828E-01  1.200E+01  6.000E-02  1.228E+00
   1   10    7     6     2    9.3776E+00  2.2039E-01   9.1572E+00  0.000E+00  0.000E+00  0.000E+00  1.03885E+03  6.732E-01  1.200E+01  6.000E-02  1.224E+00
   1   11    7     6     3    9.1572E+00  2.1981E-01   8.9374E+00  0.000E+00  0.000E+00  0.000E+00  1.03430E+03  6.636E-01  1.200E+01  6.000E-02  1.221E+00
   1   12    7     6     4    8.9374E+00  2.1923E-01   8.7181E+00  0.000E+00  0.000E+00  0.000E+00  1.02974E+03  6.539E-01  1.200E+01  6.000E-02  1.218E+00
   1   13    7     6     5    8.7181E+00 -7.2068E-02   8.7902E+00  0.000E+00  0.000E+00  0.000E+00  1.02656E+03  6.506E-01  1.200E+01  2.400E-01 -1.001E-01
   1   14    9     7     1    1.5000E+02  1.3679E+00   1.4863E+02  0.000E+00  0.000E+00  0.000E+00  1.03987E+03  2.288E+00  5.529E+01  5.593E-01  8.152E-01
   1   13    8     7     2    1.4863E+02  1.9151E+00   1.4672E+02  0.000E+00  0.000E+00  0.000E+00  1.03478E+03  2.279E+00  5.526E+01  6.148E-01  1.038E+00
   1   13    7     7     3    1.4672E+02  1.5797E+00   1.4514E+02  0.000E+00  0.000E+00  0.000E+00  1.02969E+03  2.270E+00  5.521E+01  5.584E-01  9.430E-01
   1   13    6     8     1    1.5393E+02  9.2620E-01   1.5300E+02  0.000E+00  0.000E+00  0.000E+00  1.02472E+03  2.841E+00  4.120E+01  4.198E-01  7.354E-01
   1   13    5     8     2    1.5300E+02  1.8722E-01   1.5281E+02  0.000E+00  0.000E+00  0.000E+00  1.01846E+03  2.837E+00  4.114E+01  4.192E-01  1.489E-01
   1   13    4     8     3    1.5281E+02 -2.5912E+00   1.5541E+02  0.000E+00  0.000E+00  0.000E+00  1.01222E+03  2.846E+00  4.126E+01  4.205E+00 -2.054E-01
   1   13    3     8     4    1.5541E+02 -3.8467E+00   1.5925E+02  0.000E+00  0.000E+00  0.000E+00  1.00599E+03  2.868E+00  4.158E+01  4.237E+00 -3.026E-01
   1   13    2     8     5    1.5925E+02 -2.8697E+00   1.6212E+02  0.000E+00  0.000E+00  0.000E+00  9.99766E+02  2.890E+00  4.191E+01  4.271E+00 -2.240E-01
   1   13    1     8     6    1.6212E+02 -2.1575E+00   1.6428E+02  0.000E+00  0.000E+00  0.000E+00  9.94782E+02  2.907E+00  4.216E+01  2.578E+00 -2.790E-01
   1    8    6     9     1    2.6388E+01  0.0000E+00   2.6388E+01  0.000E+00  0.000E+00  0.000E+00  1.08281E+03  4.056E+00  4.000E+00  0.000E+00  2.352E+00
   1    8    5     9     2    2.6388E+01  0.0000E+00   2.6388E+01  0.000E+00  0.000E+00  0.000E+00  1.08231E+03  4.056E+00  4.000E+00  0.000E+00  2.352E+00



 UBDSV3 SAVING "           GW ET" ON UNIT  61 AT TIME STEP 15, STRESS PERIOD   7
 UBDSV3 SAVING "    UZF RECHARGE" ON UNIT  61 AT TIME STEP 15, STRESS PERIOD   7
 UBDSV3 SAVING " SURFACE LEAKAGE" ON UNIT  61 AT TIME STEP 15, STRESS PERIOD   7
 UBDSV3 SAVING "       HORT+DUNN" ON UNIT  61 AT TIME STEP 15, STRESS PERIOD   7
 UBDSV3 SAVING "  STORAGE CHANGE" ON UNIT  61 AT TIME STEP 15, STRESS PERIOD   7


UNSATURATED ZONE PACKAGE VOLUMETRIC BUDGET FOR  TIME STEP    15 STRESS PERIOD    7
  ------------------------------------------------------------------------------



     CUMULATIVE VOLUMES      L**3       RATES FOR THIS TIME STEP      L**3/T
     ------------------                 ------------------------

           IN:                                      IN:
           ---                                      ---
        INFILTRATION =    73281567.5089          INFILTRATION =          45.7880

          OUT:                                     OUT:
          ----                                     ----
              UZF ET =    71154162.7657                UZF ET =          23.3175
        UZF RECHARGE =       73224.0000          UZF RECHARGE =       0.0000E+00

            IN - OUT =     2054180.7432              IN - OUT =          22.4705

          STORAGE:                                 STORAGE:
          --------                                 --------
      STORAGE CHANGE =     2054158.7718        STORAGE CHANGE =          22.4705

 PERCENT DISCREPANCY IS DIFFERENCE BETWEEN IN-OUT MINUS CHANGE IN STORAGE
 DIVIDED BY THE AVERAGE OF IN AND OUT TIMES 100

 PERCENT DISCREPANCY =           0.00     PERCENT DISCREPANCY =           0.00






 

            AG WELLS      PERIOD    7   STEP  15
 AG WELL      1   LAYER   1   ROW     6   COL     4   RATE    -3.09197    
 AG WELL      2   LAYER   1   ROW     6   COL     5   RATE    -3.09197    
 AG WELL      3   LAYER   1   ROW     7   COL     4   RATE    -3.09197    
 AG WELL      4   LAYER   1   ROW     7   COL     5   RATE    -3.09197    
 AG WELL      5   LAYER   1   ROW     8   COL     4   RATE    -3.09197    
 AG WELL      6   LAYER   1   ROW     8   COL     5   RATE    -3.09197    
 
 

   DIVERSION SEGMENTS     PERIOD    7   STEP  15
 SEGMENT      9   RATE     26.3882    
 
 

        SW IRRIGATION     PERIOD    7   STEP  15
 SEGMENT      9   ROW     6   COL     4   RATE     4.39812    
 SEGMENT      9   ROW     6   COL     5   RATE     4.39812    
 SEGMENT      9   ROW     7   COL     4   RATE     4.39812    
 SEGMENT      9   ROW     7   COL     5   RATE     4.39812    
 SEGMENT      9   ROW     8   COL     4   RATE     4.39812    
 SEGMENT      9   ROW     8   COL     5   RATE     4.39812    
 
 

        GW IRRIGATION     PERIOD    7   STEP  15
 AG WELL      1   ROW     6   COL     4   RATE     3.09197    
 AG WELL      2   ROW     6   COL     5   RATE     3.09197    
 AG WELL      3   ROW     7   COL     4   RATE     3.09197    
 AG WELL      4   ROW     7   COL     5   RATE     3.09197    
 AG WELL      5   ROW     8   COL     4   RATE     3.09197    
 AG WELL      6   ROW     8   COL     5   RATE     3.09197    
 
1
  VOLUMETRIC BUDGET FOR AGRICULTURAL FIELDS AT  END OF TIME STEP   15, STRESS PERIOD   7
  ------------------------------------------------------------------------------

     CUMULATIVE VOLUMES      L**3       RATES FOR THIS TIME STEP      L**3/T
     ------------------                 ------------------------

           IN:                                      IN:
           ---                                      ---
               AG WELLS  =    14046945.0000                 AG WELLS  =          18.5518
      DIVERSION SEGMENTS =    46901364.0000        DIVERSION SEGMENTS =          26.3882
           GW IRRIGATION =           0.0000             GW IRRIGATION =           0.0000
           SW IRRIGATION =           0.0000             SW IRRIGATION =           0.0000
        SYSTEM LOSSES GW =           0.0000          SYSTEM LOSSES GW =           0.0000
        SYSTEM LOSSES SW =           0.0000          SYSTEM LOSSES SW =           0.0000

                TOTAL IN =    60948308.0000                  TOTAL IN =          44.9400

          OUT:                                     OUT:
          ----                                     ----
               AG WELLS  =           0.0000                 AG WELLS  =           0.0000
      DIVERSION SEGMENTS =           0.0000        DIVERSION SEGMENTS =           0.0000
           GW IRRIGATION =    14046945.0000             GW IRRIGATION =          18.5518
           SW IRRIGATION =    46902312.0000             SW IRRIGATION =          26.3887
        SYSTEM LOSSES GW =           0.0000          SYSTEM LOSSES GW =           0.0000
        SYSTEM LOSSES SW =           0.0000          SYSTEM LOSSES SW =           0.0000

               TOTAL OUT =    60949256.0000                 TOTAL OUT =          44.9405

                IN - OUT =        -948.0000                  IN - OUT =      -5.2643E-04

     PERCENT DISCREPANCY =          -0.00         PERCENT DISCREPANCY =          -0.00



1
  VOLUMETRIC BUDGET FOR ENTIRE MODEL AT END OF TIME STEP   15, STRESS PERIOD   7
  ------------------------------------------------------------------------------

     CUMULATIVE VOLUMES      L**3       RATES FOR THIS TIME STEP      L**3/T
     ------------------                 ------------------------

           IN:                                      IN:
           ---                                      ---
             STORAGE     =    23607930.0000               STORAGE     =          19.4946
       CONSTANT HEAD     =           0.0000         CONSTANT HEAD     =           0.0000
     HEAD DEP BOUNDS     =     4188817.7500       HEAD DEP BOUNDS     =           0.2879
      STREAM LEAKAGE     =   172280272.0000        STREAM LEAKAGE     =          11.9950
        UZF RECHARGE     =       73223.9531          UZF RECHARGE     =           0.0000
               GW ET     =           0.0000                 GW ET     =           0.0000
     SURFACE LEAKAGE     =           0.0000       SURFACE LEAKAGE     =           0.0000
           AG WELLS      =           0.0000             AG WELLS      =           0.0000

                TOTAL IN =   200150240.0000                  TOTAL IN =          31.7775

          OUT:                                     OUT:
          ----                                     ----
             STORAGE     =    33273198.0000               STORAGE     =           1.3989
       CONSTANT HEAD     =           0.0000         CONSTANT HEAD     =           0.0000
     HEAD DEP BOUNDS     =     4199577.5000       HEAD DEP BOUNDS     =           0.2895
      STREAM LEAKAGE     =   148635584.0000        STREAM LEAKAGE     =          11.5372
        UZF RECHARGE     =           0.0000          UZF RECHARGE     =           0.0000
               GW ET     =           0.0000                 GW ET     =           0.0000
     SURFACE LEAKAGE     =           0.0000       SURFACE LEAKAGE     =           0.0000
           AG WELLS      =    14046945.0000             AG WELLS      =          18.5518

               TOTAL OUT =   200155296.0000                 TOTAL OUT =          31.7774

                IN - OUT =       -5056.0000                  IN - OUT =       5.3406E-05

     PERCENT DISCREPANCY =          -0.00         PERCENT DISCREPANCY =           0.00






         TIME SUMMARY AT END OF TIME STEP   15 IN STRESS PERIOD    7
                    SECONDS     MINUTES      HOURS       DAYS        YEARS
                    -----------------------------------------------------------
   TIME STEP LENGTH  87667.      1461.1      24.352      1.0147     2.77799E-03
 STRESS PERIOD TIME 1.31500E+06  21917.      365.28      15.220     4.16698E-02
         TOTAL TIME 1.45514E+07 2.42524E+05  4042.1      168.42     0.46111    
1
 
 SOLVING FOR HEAD 
                                                   Max.-Head-Change                         Max.-Flux-Residual
  Residual-Control   Outer-Iter.   Inner-Iter.     Column Row Layer    Maximum-Head-Change  Column Row Layer    Maximum-Flux-Residual          L2-NORM 
          0                 1           2             5    6     1       0.1015676383E-01       5    6    1         0.5527987543E+00      0.1313737813E+01
          0                 2           2             7   13     1      -0.2358418553E-02       7   13    1        -0.1308123584E+00      0.1835290854E+00
          0                 3           2             7   13     1       0.1605547502E-03       7   13    1         0.9154364610E-02      0.1281552789E-01
          0                 4           1             7   13     1      -0.6385804714E-05       7   13    1        -0.3742568554E-03      0.5219872097E-03

    ------------------------------------------------
       NWT REQUIRED            4 OUTER ITERATIONS 
       AND A TOTAL OF          7 INNER ITERATIONS.
    ------------------------------------------------

 NO OUTPUT CONTROL FOR STRESS PERIOD    7   TIME STEP   16
 
 SOLVING FOR HEAD 
                                                   Max.-Head-Change                         Max.-Flux-Residual
  Residual-Control   Outer-Iter.   Inner-Iter.     Column Row Layer    Maximum-Head-Change  Column Row Layer    Maximum-Flux-Residual          L2-NORM 
          0                 1           2             5    6     1       0.9707325607E-02       5    6    1         0.5278600600E+00      0.1252772292E+01
          0                 2           2             4    7     1      -0.7019348282E-01       5    6    1        -0.3797786116E+01      0.9316999768E+01
          0                 3           2             4    7     1       0.1661528341E-01       5    6    1         0.9188414201E+00      0.2251195330E+01
          0                 4           2             4    7     1      -0.6611393638E-03       5    6    1        -0.3756959251E-01      0.9225689761E-01
          0                 5           1             4    7     1       0.8152132048E-05       5    6    1         0.4753651056E-03      0.1203604565E-02

    ------------------------------------------------
       NWT REQUIRED            5 OUTER ITERATIONS 
       AND A TOTAL OF          9 INNER ITERATIONS.
    ------------------------------------------------

 NO OUTPUT CONTROL FOR STRESS PERIOD    7   TIME STEP   17
 
 SOLVING FOR HEAD 
                                                   Max.-Head-Change                         Max.-Flux-Residual
  Residual-Control   Outer-Iter.   Inner-Iter.     Column Row Layer    Maximum-Head-Change  Column Row Layer    Maximum-Flux-Residual          L2-NORM 
          0                 1           2             5    6     1       0.1087038201E-01       5    6    1         0.5915488466E+00      0.1402966913E+01
          0                 2           2             7   13     1      -0.2360939466E-02       7   13    1        -0.1309518530E+00      0.1900512027E+00
          0                 3           2             7   13     1       0.1607262330E-03       7   13    1         0.9164117433E-02      0.1327152304E-01
          0                 4           1             7   13     1      -0.6392506752E-05       7   13    1        -0.3746419138E-03      0.5408564583E-03

    ------------------------------------------------
       NWT REQUIRED            4 OUTER ITERATIONS 
       AND A TOTAL OF          7 INNER ITERATIONS.
    ------------------------------------------------

 NO OUTPUT CONTROL FOR STRESS PERIOD    7   TIME STEP   18
 
 SOLVING FOR HEAD 
                                                   Max.-Head-Change                         Max.-Flux-Residual
  Residual-Control   Outer-Iter.   Inner-Iter.     Column Row Layer    Maximum-Head-Change  Column Row Layer    Maximum-Flux-Residual          L2-NORM 
          0                 1           2             5    6     1       0.1039103012E-01       5    6    1         0.5649596918E+00      0.1338931153E+01
          0                 2           2             4    7     1      -0.7024196770E-01       5    6    1        -0.3801496069E+01      0.9325235166E+01
          0                 3           2             4    7     1       0.1661859709E-01       5    6    1         0.9191023053E+00      0.2251758743E+01
          0                 4           2             4    7     1      -0.6612712175E-03       5    6    1        -0.3758037744E-01      0.9227945441E-01
          0                 5           1             4    7     1       0.8153758167E-05       5    6    1         0.4755095986E-03      0.1203652523E-02

    ------------------------------------------------
       NWT REQUIRED            5 OUTER ITERATIONS 
       AND A TOTAL OF          9 INNER ITERATIONS.
    ------------------------------------------------

 NO OUTPUT CONTROL FOR STRESS PERIOD    7   TIME STEP   19
 
 SOLVING FOR HEAD 
                                                   Max.-Head-Change                         Max.-Flux-Residual
  Residual-Control   Outer-Iter.   Inner-Iter.     Column Row Layer    Maximum-Head-Change  Column Row Layer    Maximum-Flux-Residual          L2-NORM 
          0                 1           2             5    6     1       0.1152565264E-01       5    6    1         0.6270807715E+00      0.1486289294E+01
          0                 2           2             7   13     1      -0.2363260739E-02       7   13    1        -0.1310802946E+00      0.1963145822E+00
          0                 3           2             7   13     1       0.1608830075E-03       7   13    1         0.9173037555E-02      0.1370897062E-01
          0                 4           1             7   13     1      -0.6398800087E-05       7   13    1        -0.3750110632E-03      0.5587516958E-03

    ------------------------------------------------
       NWT REQUIRED            4 OUTER ITERATIONS 
       AND A TOTAL OF          7 INNER ITERATIONS.
    ------------------------------------------------

 NO OUTPUT CONTROL FOR STRESS PERIOD    7   TIME STEP   20
 
 SOLVING FOR HEAD 
                                                   Max.-Head-Change                         Max.-Flux-Residual
  Residual-Control   Outer-Iter.   Inner-Iter.     Column Row Layer    Maximum-Head-Change  Column Row Layer    Maximum-Flux-Residual          L2-NORM 
          0                 1           2             5    6     1       0.1101953664E-01       5    6    1         0.5990175171E+00      0.1419547298E+01
          0                 2           2             4    7     1      -0.7029057731E-01       5    6    1        -0.3804901840E+01      0.9332999364E+01
          0                 3           2             4    7     1       0.1662191944E-01       5    6    1         0.9193417596E+00      0.2252291306E+01
          0                 4           2             4    7     1      -0.6614034161E-03       5    6    1        -0.3759027249E-01      0.9230097966E-01
          0                 5           1             4    7     1       0.8155387983E-05       5    6    1         0.4756418709E-03      0.1203725444E-02

    ------------------------------------------------
       NWT REQUIRED            5 OUTER ITERATIONS 
       AND A TOTAL OF          9 INNER ITERATIONS.
    ------------------------------------------------

 NO OUTPUT CONTROL FOR STRESS PERIOD    7   TIME STEP   21
 
 SOLVING FOR HEAD 
                                                   Max.-Head-Change                         Max.-Flux-Residual
  Residual-Control   Outer-Iter.   Inner-Iter.     Column Row Layer    Maximum-Head-Change  Column Row Layer    Maximum-Flux-Residual          L2-NORM 
          0                 1           2             5    6     1       0.1212865278E-01       5    6    1         0.6597341309E+00      0.1564169809E+01
          0                 2           2             7   13     1      -0.2365434693E-02       7   13    1        -0.1312005845E+00      0.2023079053E+00
          0                 3           2             7   13     1       0.1610317358E-03       7   13    1         0.9181498780E-02      0.1412799556E-01
          0                 4           1             7   13     1      -0.6405097337E-05       7   13    1        -0.3753800636E-03      0.5760892806E-03

    ------------------------------------------------
       NWT REQUIRED            4 OUTER ITERATIONS 
       AND A TOTAL OF          7 INNER ITERATIONS.
    ------------------------------------------------

 NO OUTPUT CONTROL FOR STRESS PERIOD    7   TIME STEP   22
 
 SOLVING FOR HEAD 
                                                   Max.-Head-Change                         Max.-Flux-Residual
  Residual-Control   Outer-Iter.   Inner-Iter.     Column Row Layer    Maximum-Head-Change  Column Row Layer    Maximum-Flux-Residual          L2-NORM 
          0                 1           2             5    6     1       0.1159881944E-01       5    6    1         0.6303651458E+00      0.1495049167E+01
          0                 2           2             4    7     1      -0.7033906991E-01       5    6    1        -0.3808036592E+01      0.9340330671E+01
          0                 3           2             4    7     1       0.1662523393E-01       5    6    1         0.9195621190E+00      0.2252795253E+01
          0                 4           2             4    7     1      -0.6615353023E-03       5    6    1        -0.3759937460E-01      0.9232126008E-01
          0                 5           1             4    7     1       0.8157014551E-05       5    6    1         0.4757633160E-03      0.1203949989E-02

    ------------------------------------------------
       NWT REQUIRED            5 OUTER ITERATIONS 
       AND A TOTAL OF          9 INNER ITERATIONS.
    ------------------------------------------------

 NO OUTPUT CONTROL FOR STRESS PERIOD    7   TIME STEP   23
 
 SOLVING FOR HEAD 
                                                   Max.-Head-Change                         Max.-Flux-Residual
  Residual-Control   Outer-Iter.   Inner-Iter.     Column Row Layer    Maximum-Head-Change  Column Row Layer    Maximum-Flux-Residual          L2-NORM 
          0                 1           2             5    6     1       0.1268526950E-01       5    6    1         0.6898352064E+00      0.1637087602E+01
          0                 2           2             7   13     1      -0.2367456643E-02       7   13    1        -0.1313124577E+00      0.2080298303E+00
          0                 3           2             7   13     1       0.1611707783E-03       7   13    1         0.9189404535E-02      0.1452838473E-01
          0                 4           1             7   13     1      -0.6411930160E-05       7   13    1        -0.3757794107E-03      0.5923656455E-03

    ------------------------------------------------
       NWT REQUIRED            4 OUTER ITERATIONS 
       AND A TOTAL OF          7 INNER ITERATIONS.
    ------------------------------------------------

 NO OUTPUT CONTROL FOR STRESS PERIOD    7   TIME STEP   24
 
 SOLVING FOR HEAD 
                                                   Max.-Head-Change                         Max.-Flux-Residual
  Residual-Control   Outer-Iter.   Inner-Iter.     Column Row Layer    Maximum-Head-Change  Column Row Layer    Maximum-Flux-Residual          L2-NORM 
          0                 1           2             5    6     1       0.1213406553E-01       5    6    1         0.6592913051E+00      0.1565863401E+01
          0                 2           2             4    7     1      -0.7038724497E-01       5    6    1        -0.3810929196E+01      0.9347264831E+01
          0                 3           2             4    7     1       0.1662852685E-01       5    6    1         0.9197654203E+00      0.2253272811E+01
          0                 4           2             4    7     1      -0.6616663303E-03       5    6    1        -0.3760776863E-01      0.9234054111E-01
          0                 5           1             4    7     1       0.8158630028E-05       5    6    1         0.4758750583E-03      0.1204268962E-02

    ------------------------------------------------
       NWT REQUIRED            5 OUTER ITERATIONS 
       AND A TOTAL OF          9 INNER ITERATIONS.
    ------------------------------------------------

 NO OUTPUT CONTROL FOR STRESS PERIOD    7   TIME STEP   25
 
 SOLVING FOR HEAD 
                                                   Max.-Head-Change                         Max.-Flux-Residual
  Residual-Control   Outer-Iter.   Inner-Iter.     Column Row Layer    Maximum-Head-Change  Column Row Layer    Maximum-Flux-Residual          L2-NORM 
          0                 1           2             5    6     1       0.1320063855E-01       5    6    1         0.7176694558E+00      0.1705465758E+01
          0                 2           2             7   13     1      -0.2369330392E-02       7   13    1        -0.1314161368E+00      0.2134839354E+00
          0                 3           2             7   13     1       0.1612964066E-03       7   13    1         0.9196550134E-02      0.1490969652E-01
          0                 4           1             7   13     1      -0.6414936602E-05       7   13    1        -0.3759559409E-03      0.6076272450E-03

    ------------------------------------------------
       NWT REQUIRED            4 OUTER ITERATIONS 
       AND A TOTAL OF          7 INNER ITERATIONS.
    ------------------------------------------------

 NO OUTPUT CONTROL FOR STRESS PERIOD    7   TIME STEP   26
 
 SOLVING FOR HEAD 
                                                   Max.-Head-Change                         Max.-Flux-Residual
  Residual-Control   Outer-Iter.   Inner-Iter.     Column Row Layer    Maximum-Head-Change  Column Row Layer    Maximum-Flux-Residual          L2-NORM 
          0                 1           2             5    6     1       0.1263006683E-01       5    6    1         0.6860622831E+00      0.1632389421E+01
          0                 2           2             4    7     1      -0.7043493339E-01       5    6    1        -0.3813606283E+01      0.9353832013E+01
          0                 3           2             4    7     1       0.1663178665E-01       5    6    1         0.9199535407E+00      0.2253725999E+01
          0                 4           2             4    7     1      -0.6617960411E-03       5    6    1        -0.3761553260E-01      0.9235889245E-01
          0                 5           1             4    7     1       0.8160229264E-05       5    6    1         0.4759782018E-03      0.1204572985E-02

    ------------------------------------------------
       NWT REQUIRED            5 OUTER ITERATIONS 
       AND A TOTAL OF          9 INNER ITERATIONS.
    ------------------------------------------------

 NO OUTPUT CONTROL FOR STRESS PERIOD    7   TIME STEP   27
 
 SOLVING FOR HEAD 
                                                   Max.-Head-Change                         Max.-Flux-Residual
  Residual-Control   Outer-Iter.   Inner-Iter.     Column Row Layer    Maximum-Head-Change  Column Row Layer    Maximum-Flux-Residual          L2-NORM 
          0                 1           2             5    6     1       0.1367833835E-01       5    6    1         0.7434358016E+00      0.1769703658E+01
          0                 2           2             7   13     1      -0.2371070342E-02       7   13    1        -0.1315124073E+00      0.2186805414E+00
          0                 3           2             7   13     1       0.1614165571E-03       7   13    1         0.9203387156E-02      0.1527363441E-01
          0                 4           1             7   13     1      -0.6421084186E-05       7   13    1        -0.3763165723E-03      0.6227389092E-03

    ------------------------------------------------
       NWT REQUIRED            4 OUTER ITERATIONS 
       AND A TOTAL OF          7 INNER ITERATIONS.
    ------------------------------------------------

 NO OUTPUT CONTROL FOR STRESS PERIOD    7   TIME STEP   28
 
 SOLVING FOR HEAD 
                                                   Max.-Head-Change                         Max.-Flux-Residual
  Residual-Control   Outer-Iter.   Inner-Iter.     Column Row Layer    Maximum-Head-Change  Column Row Layer    Maximum-Flux-Residual          L2-NORM 
          0                 1           2             5    6     1       0.1309077480E-01       5    6    1         0.7108966455E+00      0.1694996468E+01
          0                 2           2             4    7     1      -0.7048198237E-01       5    6    1        -0.3816089708E+01      0.9360060480E+01
          0                 3           2             4    7     1       0.1663500287E-01       5    6    1         0.9201280200E+00      0.2254156525E+01
          0                 4           2             4    7     1      -0.6619240177E-03       5    6    1        -0.3762273047E-01      0.9237625857E-01
          0                 5           1             4    7     1       0.8161807553E-05       5    6    1         0.4760736206E-03      0.1204594648E-02

    ------------------------------------------------
       NWT REQUIRED            5 OUTER ITERATIONS 
       AND A TOTAL OF          9 INNER ITERATIONS.
    ------------------------------------------------

 NO OUTPUT CONTROL FOR STRESS PERIOD    7   TIME STEP   29
 
 SOLVING FOR HEAD 
                                                   Max.-Head-Change                         Max.-Flux-Residual
  Residual-Control   Outer-Iter.   Inner-Iter.     Column Row Layer    Maximum-Head-Change  Column Row Layer    Maximum-Flux-Residual          L2-NORM 
          0                 1           2             5    6     1       0.1412192302E-01       5    6    1         0.7673886643E+00      0.1805619386E+01
          0                 2           2             7   13     1      -0.2128037341E-02       7   13    1        -0.1180369219E+00      0.2143495775E+00
          0                 3           2             7   13     1       0.1448705795E-03       7   13    1         0.8260308879E-02      0.1501276162E-01
          0                 4           1             7   13     1      -0.5753305190E-05       7   13    1        -0.3371930984E-03      0.6120247000E-03

    ------------------------------------------------
       NWT REQUIRED            4 OUTER ITERATIONS 
       AND A TOTAL OF          7 INNER ITERATIONS.
    ------------------------------------------------

 NO OUTPUT CONTROL FOR STRESS PERIOD    7   TIME STEP   30



 STREAM LISTING     PERIOD      7   STEP       30

 LAYER ROW COL. STREAM  RCH.  FLOW INTO     FLOW TO   FLOW OUT OF   OVRLND.     DIRECT     STREAM       STREAM     STREAM     STREAM   STREAMBED  STREAMBED
                SEG.NO.  NO.  STRM. RCH.    AQUIFER    STRM. RCH.    RUNOFF     PRECIP       ET          HEAD       DEPTH      WIDTH   CONDCTNC.   GRADIENT

   1    1    1     1     1    2.8852E+01  2.6229E-01   2.8590E+01  0.000E+00  0.000E+00  0.000E+00  1.09428E+03  1.233E+00  1.377E+01  6.197E-02  1.411E+00
   1    2    2     1     2    2.8590E+01  4.0577E-01   2.8184E+01  0.000E+00  0.000E+00  0.000E+00  1.08929E+03  1.228E+00  1.371E+01  9.596E-02  1.409E+00
   1    3    3     1     3    2.8184E+01  3.4562E-01   2.7838E+01  0.000E+00  0.000E+00  0.000E+00  1.08364E+03  1.223E+00  1.364E+01  8.184E-02  1.408E+00
   1    3    4     1     4    2.7838E+01  3.1791E-01   2.7521E+01  0.000E+00  0.000E+00  0.000E+00  1.07863E+03  1.219E+00  1.358E+01  7.536E-02  1.406E+00
   1    4    5     2     1    2.5521E+01  3.2899E-01   2.5192E+01  0.000E+00  0.000E+00  0.000E+00  1.07315E+03  1.218E+00  1.200E+01  7.800E-02  1.406E+00
   1    5    6     2     2    2.5192E+01  2.5257E-01   2.4939E+01  0.000E+00  0.000E+00  0.000E+00  1.06772E+03  1.209E+00  1.200E+01  6.000E-02  1.403E+00
   1    6    6     2     3    2.4939E+01  2.5213E-01   2.4687E+01  0.000E+00  0.000E+00  0.000E+00  1.06299E+03  1.202E+00  1.200E+01  6.000E-02  1.401E+00
   1    7    6     2     4    2.4687E+01  2.5169E-01   2.4435E+01  0.000E+00  0.000E+00  0.000E+00  1.05827E+03  1.195E+00  1.200E+01  6.000E-02  1.398E+00
   1    8    6     2     5    2.4435E+01  2.5125E-01   2.4184E+01  0.000E+00  0.000E+00  0.000E+00  1.05355E+03  1.187E+00  1.200E+01  6.000E-02  1.396E+00
   1    3    5     3     1    2.0000E+00  2.8252E-01   1.7175E+00  0.000E+00  0.000E+00  0.000E+00  1.07555E+03  1.909E+00  9.636E+00  7.227E-02  1.955E+00
   1    3    6     3     2    1.7175E+00  2.4905E-01   1.4684E+00  0.000E+00  0.000E+00  0.000E+00  1.07264E+03  1.727E+00  8.909E+00  6.682E-02  1.864E+00
   1    3    7     3     3    1.4684E+00  1.9718E-01   1.2712E+00  0.000E+00  0.000E+00  0.000E+00  1.06987E+03  1.555E+00  8.218E+00  5.547E-02  1.777E+00
   1    4    8     3     4    1.2712E+00  2.2567E-01   1.0456E+00  0.000E+00  0.000E+00  0.000E+00  1.06682E+03  1.364E+00  7.455E+00  6.709E-02  1.682E+00
   1    5    8     3     5    1.0456E+00  1.5790E-01   8.8768E-01  0.000E+00  0.000E+00  0.000E+00  1.06362E+03  1.164E+00  6.655E+00  4.991E-02  1.582E+00
   1    6    8     3     6    8.8768E-01  5.5980E-02   8.3170E-01  0.000E+00  0.000E+00  0.000E+00  1.06158E+03  1.036E+00  6.145E+00  1.844E-02  1.518E+00
   1    5   10     4     1    1.0000E+01  9.0919E-02   9.9091E+00  0.000E+00  0.000E+00  0.000E+00  1.07836E+03  6.368E-01  1.000E+01  2.500E-02  1.212E+00
   1    5    9     4     2    9.9091E+00  1.8158E-01   9.7275E+00  0.000E+00  0.000E+00  0.000E+00  1.07154E+03  6.315E-01  1.000E+01  5.000E-02  1.211E+00
   1    6    8     4     3    9.7275E+00  1.2689E-01   9.6006E+00  0.000E+00  0.000E+00  0.000E+00  1.06381E+03  6.256E-01  1.000E+01  3.500E-02  1.209E+00
   1    6    8     5     1    1.0432E+01  2.2686E-01   1.0205E+01  0.000E+00  0.000E+00  0.000E+00  1.05868E+03  6.790E-01  1.542E+01  6.166E-02  1.226E+00
   1    7    7     5     2    1.0205E+01  2.7894E-01   9.9265E+00  0.000E+00  0.000E+00  0.000E+00  1.05417E+03  6.732E-01  1.519E+01  7.594E-02  1.224E+00
   1    8    7     5     3    9.9265E+00  1.9221E-01   9.7343E+00  0.000E+00  0.000E+00  0.000E+00  1.04992E+03  6.676E-01  1.497E+01  5.241E-02  1.223E+00
   1    8    6     5     4    9.7343E+00  1.3577E-01   9.5985E+00  0.000E+00  0.000E+00  0.000E+00  1.04691E+03  6.637E-01  1.482E+01  3.706E-02  1.221E+00
   1    9    6     6     1    3.3782E+01  2.6756E-01   3.3515E+01  0.000E+00  0.000E+00  0.000E+00  1.04419E+03  1.459E+00  1.200E+01  6.000E-02  1.486E+00
   1   10    7     6     2    3.3515E+01  2.6714E-01   3.3248E+01  0.000E+00  0.000E+00  0.000E+00  1.03963E+03  1.452E+00  1.200E+01  6.000E-02  1.484E+00
   1   11    7     6     3    3.3248E+01  2.6672E-01   3.2981E+01  0.000E+00  0.000E+00  0.000E+00  1.03508E+03  1.445E+00  1.200E+01  6.000E-02  1.482E+00
   1   12    7     6     4    3.2981E+01  2.6630E-01   3.2715E+01  0.000E+00  0.000E+00  0.000E+00  1.03053E+03  1.438E+00  1.200E+01  6.000E-02  1.479E+00
   1   13    7     6     5    3.2715E+01  1.1642E-02   3.2703E+01  0.000E+00  0.000E+00  0.000E+00  1.02734E+03  1.435E+00  1.200E+01  2.400E-02  1.617E-01
   1   14    9     7     1    1.5000E+02  1.3680E+00   1.4863E+02  0.000E+00  0.000E+00  0.000E+00  1.03987E+03  2.288E+00  5.529E+01  5.593E-01  8.153E-01
   1   13    8     7     2    1.4863E+02  1.9150E+00   1.4672E+02  0.000E+00  0.000E+00  0.000E+00  1.03478E+03  2.279E+00  5.526E+01  6.148E-01  1.038E+00
   1   13    7     7     3    1.4672E+02  1.5804E+00   1.4514E+02  0.000E+00  0.000E+00  0.000E+00  1.02969E+03  2.270E+00  5.521E+01  5.584E-01  9.434E-01
   1   13    6     8     1    1.7784E+02  1.0483E+00   1.7679E+02  0.000E+00  0.000E+00  0.000E+00  1.02487E+03  2.999E+00  4.349E+01  4.432E-01  7.885E-01
   1   13    5     8     2    1.7679E+02  2.6833E-01   1.7652E+02  0.000E+00  0.000E+00  0.000E+00  1.01862E+03  2.995E+00  4.343E+01  4.425E-01  2.021E-01
   1   13    4     8     3    1.7652E+02 -2.0334E+00   1.7856E+02  0.000E+00  0.000E+00  0.000E+00  1.01238E+03  3.001E+00  4.351E+01  4.434E+00 -1.529E-01
   1   13    3     8     4    1.7856E+02 -3.3612E+00   1.8192E+02  0.000E+00  0.000E+00  0.000E+00  1.00614E+03  3.018E+00  4.376E+01  4.459E+00 -2.513E-01
   1   13    2     8     5    1.8192E+02 -2.3393E+00   1.8426E+02  0.000E+00  0.000E+00  0.000E+00  9.99910E+02  3.035E+00  4.401E+01  4.485E+00 -1.739E-01
   1   13    1     8     6    1.8426E+02 -1.8634E+00   1.8612E+02  0.000E+00  0.000E+00  0.000E+00  9.94923E+02  3.048E+00  4.420E+01  2.703E+00 -2.298E-01
   1    8    6     9     1    0.0000E+00  0.0000E+00   0.0000E+00  0.000E+00  0.000E+00  0.000E+00  1.07875E+03  0.000E+00  4.000E+00  0.000E+00  1.000E+00
   1    8    5     9     2    0.0000E+00  0.0000E+00   0.0000E+00  0.000E+00  0.000E+00  0.000E+00  1.07825E+03  0.000E+00  4.000E+00  0.000E+00  1.000E+00





UNSATURATED ZONE PACKAGE VOLUMETRIC BUDGET FOR  TIME STEP    30 STRESS PERIOD    7
  ------------------------------------------------------------------------------



     CUMULATIVE VOLUMES      L**3       RATES FOR THIS TIME STEP      L**3/T
     ------------------                 ------------------------

           IN:                                      IN:
           ---                                      ---
        INFILTRATION =   101974536.3212          INFILTRATION =           0.8475

          OUT:                                     OUT:
          ----                                     ----
              UZF ET =   101817057.7039                UZF ET =          23.3180
        UZF RECHARGE =       73224.0000          UZF RECHARGE =       0.0000E+00

            IN - OUT =       84254.6172              IN - OUT =         -22.4705

          STORAGE:                                 STORAGE:
          --------                                 --------
      STORAGE CHANGE =       84242.0890        STORAGE CHANGE =         -22.4705

 PERCENT DISCREPANCY IS DIFFERENCE BETWEEN IN-OUT MINUS CHANGE IN STORAGE
 DIVIDED BY THE AVERAGE OF IN AND OUT TIMES 100

 PERCENT DISCREPANCY =           0.00     PERCENT DISCREPANCY =          -0.00






1
  VOLUMETRIC BUDGET FOR AGRICULTURAL FIELDS AT  END OF TIME STEP   30, STRESS PERIOD   7
  ------------------------------------------------------------------------------

     CUMULATIVE VOLUMES      L**3       RATES FOR THIS TIME STEP      L**3/T
     ------------------                 ------------------------

           IN:                                      IN:
           ---                                      ---
               AG WELLS  =    25431576.0000                 AG WELLS  =           0.0000
      DIVERSION SEGMENTS =    63094912.0000        DIVERSION SEGMENTS =           0.0000
           GW IRRIGATION =           0.0000             GW IRRIGATION =           0.0000
           SW IRRIGATION =           0.0000             SW IRRIGATION =           0.0000
        SYSTEM LOSSES GW =           0.0000          SYSTEM LOSSES GW =           0.0000
        SYSTEM LOSSES SW =           0.0000          SYSTEM LOSSES SW =           0.0000

                TOTAL IN =    88526488.0000                  TOTAL IN =           0.0000

          OUT:                                     OUT:
          ----                                     ----
               AG WELLS  =           0.0000                 AG WELLS  =           0.0000
      DIVERSION SEGMENTS =           0.0000        DIVERSION SEGMENTS =           0.0000
           GW IRRIGATION =    25431576.0000             GW IRRIGATION =           0.0000
           SW IRRIGATION =    63096196.0000             SW IRRIGATION =           0.0000
        SYSTEM LOSSES GW =           0.0000          SYSTEM LOSSES GW =           0.0000
        SYSTEM LOSSES SW =           0.0000          SYSTEM LOSSES SW =           0.0000

               TOTAL OUT =    88527776.0000                 TOTAL OUT =           0.0000

                IN - OUT =       -1288.0000                  IN - OUT =           0.0000

     PERCENT DISCREPANCY =          -0.00         PERCENT DISCREPANCY =           0.00



1
  VOLUMETRIC BUDGET FOR ENTIRE MODEL AT END OF TIME STEP   30, STRESS PERIOD   7
  ------------------------------------------------------------------------------

     CUMULATIVE VOLUMES      L**3       RATES FOR THIS TIME STEP      L**3/T
     ------------------                 ------------------------

           IN:                                      IN:
           ---                                      ---
             STORAGE     =    37099512.0000               STORAGE     =           2.8586
       CONSTANT HEAD     =           0.0000         CONSTANT HEAD     =           0.0000
     HEAD DEP BOUNDS     =     4567467.5000       HEAD DEP BOUNDS     =           0.2880
      STREAM LEAKAGE     =   188350544.0000        STREAM LEAKAGE     =          12.3290
        UZF RECHARGE     =       73223.9531          UZF RECHARGE     =           0.0000
               GW ET     =           0.0000                 GW ET     =           0.0000
     SURFACE LEAKAGE     =           0.0000       SURFACE LEAKAGE     =           0.0000
           AG WELLS      =           0.0000             AG WELLS      =           0.0000

                TOTAL IN =   230090736.0000                  TOTAL IN =          15.4756

          OUT:                                     OUT:
          ----                                     ----
             STORAGE     =    37747176.0000               STORAGE     =           5.5890
       CONSTANT HEAD     =           0.0000         CONSTANT HEAD     =           0.0000
     HEAD DEP BOUNDS     =     4580133.0000       HEAD DEP BOUNDS     =           0.2893
      STREAM LEAKAGE     =   162336864.0000        STREAM LEAKAGE     =           9.5973
        UZF RECHARGE     =           0.0000          UZF RECHARGE     =           0.0000
               GW ET     =           0.0000                 GW ET     =           0.0000
     SURFACE LEAKAGE     =           0.0000       SURFACE LEAKAGE     =           0.0000
           AG WELLS      =    25431576.0000             AG WELLS      =           0.0000

               TOTAL OUT =   230095744.0000                 TOTAL OUT =          15.4756

                IN - OUT =       -5008.0000                  IN - OUT =       1.8120E-05

     PERCENT DISCREPANCY =          -0.00         PERCENT DISCREPANCY =           0.00






         TIME SUMMARY AT END OF TIME STEP   30 IN STRESS PERIOD    7
                    SECONDS     MINUTES      HOURS       DAYS        YEARS
                    -----------------------------------------------------------
   TIME STEP LENGTH  87667.      1461.1      24.352      1.0147     2.77799E-03
 STRESS PERIOD TIME 2.63000E+06  43833.      730.56      30.440     8.33397E-02
         TOTAL TIME 1.58664E+07 2.64440E+05  4407.3      183.64     0.50278    
1
1
                            STRESS PERIOD NO.    8, LENGTH =   2630000.    
                            -----------------------------------------------

                              NUMBER OF TIME STEPS =    30

                               MULTIPLIER FOR DELT =     1.000

                            INITIAL TIME STEP SIZE =   87666.66    

 REUSING NON-PARAMETER GHB CELLS FROM LAST STRESS PERIOD

      2 GHB CELLS

 REUSING STREAM SEGMENT DATA FROM LAST STRESS PERIOD



            AREAL INFILTRATION RATE
 READING ON UNIT   19 WITH FORMAT: (FREE)              

            1           2           3           4           5           6           7           8           9          10
 ........................................................................................................................
   1   1.0000E-10  2.0000E-10   0.000       0.000       0.000       0.000       0.000       0.000       0.000       0.000    
   2   2.0000E-10  1.0000E-10  2.0000E-10   0.000       0.000      8.0000E-10  8.0000E-10  5.0000E-10   0.000       0.000    
   3    0.000      5.0000E-10  1.0000E-10  1.0000E-10  8.0000E-10  8.0000E-10  5.0000E-10  5.0000E-10   0.000       0.000    
   4   8.0000E-10  5.0000E-10  1.0000E-10  1.0000E-10  1.0000E-10  1.0000E-10  1.0000E-10  1.0000E-10  2.0000E-10   0.000    
   5   8.0000E-10  5.0000E-10  1.0000E-10  1.0000E-10  1.0000E-10  1.0000E-10  1.0000E-10  1.0000E-10  1.0000E-10  1.0000E-10
   6   8.0000E-10  5.0000E-10  5.0000E-10  2.0000E-10  2.0000E-10  1.0000E-10  1.0000E-10  1.0000E-10  1.0000E-10  5.0000E-10
   7   8.0000E-10  5.0000E-10  5.0000E-10  2.0000E-10  2.0000E-10  1.0000E-10  1.0000E-10  2.0000E-10  2.0000E-10   0.000    
   8    0.000      5.0000E-10  5.0000E-10  2.0000E-10  2.0000E-10  1.0000E-10  1.0000E-10  2.0000E-10  5.0000E-10   0.000    
   9    0.000      5.0000E-10  5.0000E-10  2.0000E-10  2.0000E-10  1.0000E-10  1.0000E-10  2.0000E-10  5.0000E-10   0.000    
  10    0.000      5.0000E-10  5.0000E-10  2.0000E-10  2.0000E-10  1.0000E-10  1.0000E-10  2.0000E-10  5.0000E-10  8.0000E-10
  11    0.000      1.0000E-10  1.0000E-10  1.0000E-10  1.0000E-10  1.0000E-10  1.0000E-10  2.0000E-10  5.0000E-10   0.000    
  12   1.0000E-10  1.0000E-10  1.0000E-10  1.0000E-10  1.0000E-10  1.0000E-10  1.0000E-10  1.0000E-10  2.0000E-10   0.000    
  13   1.0000E-10  1.0000E-10  2.0000E-10  2.0000E-10  2.0000E-10  2.0000E-10  2.0000E-10  1.0000E-10  1.0000E-10   0.000    
  14    0.000      2.0000E-10  5.0000E-10  5.0000E-10  5.0000E-10  5.0000E-10  5.0000E-10  2.0000E-10  1.0000E-10   0.000    
  15    0.000       0.000      8.0000E-10  8.0000E-10  8.0000E-10  8.0000E-10   0.000       0.000       0.000       0.000    

                  ET RATE =  4.000000E-07

 USING ET EXTINCTION DEPTH FROM PREVIOUS STRESS PERIOD. CURRENT PERIOD IS:       8

 USING EXTINCTION WATER CONTENT FROM PREVIOUS STRESS PERIOD. CURRENT PERIOD IS:       8

 USING AIR ENTRY PRESSURE FROM PREVIOUS STRESS PERIOD. CURRENT PERIOD IS:       8

 USING ROOT PRESSURE HEAD FROM PREVIOUS STRESS PERIOD. CURRENT PERIOD IS:       8

 USING ROOT ACTIVITY FROM PREVIOUS STRESS PERIOD. CURRENT PERIOD IS:       8

 PROCESSING AG STRESS PERIOD DATA

 READING AG STRESS PERIOD DATA

 READING IRRIGATION SEGMENT

 READING IRRIGATION WELL

 READING SUPPLEMENTAL WELL

 END PROCESSING AG STRESS PERIOD DATA OPTIONS
 
 SOLVING FOR HEAD 
                                                   Max.-Head-Change                         Max.-Flux-Residual
  Residual-Control   Outer-Iter.   Inner-Iter.     Column Row Layer    Maximum-Head-Change  Column Row Layer    Maximum-Flux-Residual          L2-NORM 
          0                 1           2             5    6     1       0.1351751578E-01       5    6    1         0.7339456483E+00      0.1725968450E+01
          0                 2           2             4    7     1      -0.3002755290E+00       5    6    1        -0.1615013092E+02      0.3953781469E+02
          0                 3           2             4    7     1       0.2044711278E-01       5    6    1         0.1130303487E+01      0.2767915081E+01
          0                 4           2             4    7     1      -0.8136123271E-03       5    6    1        -0.4621204592E-01      0.1132549719E+00
          0                 5           1             4    7     1       0.1003218838E-04       4    7    1         0.5846291833E-03      0.1449877023E-02

    ------------------------------------------------
       NWT REQUIRED            5 OUTER ITERATIONS 
       AND A TOTAL OF          9 INNER ITERATIONS.
    ------------------------------------------------

 OUTPUT CONTROL FOR STRESS PERIOD    8   TIME STEP    1
    PRINT BUDGET
    SAVE BUDGET
 UBDSV1 SAVING "         STORAGE" ON UNIT 102 AT TIME STEP  1, STRESS PERIOD   8
 UBDSV2 SAVING "   CONSTANT HEAD" ON UNIT 102 AT TIME STEP  1, STRESS PERIOD   8
 UBDSV1 SAVING "FLOW RIGHT FACE " ON UNIT 102 AT TIME STEP  1, STRESS PERIOD   8
 UBDSV1 SAVING "FLOW FRONT FACE " ON UNIT 102 AT TIME STEP  1, STRESS PERIOD   8

  HEAD DEP BOUNDS   PERIOD    8   STEP     1
 BOUNDARY      1   LAYER   1   ROW    13   COL     1   RATE   -0.289179    
 BOUNDARY      2   LAYER   1   ROW    14   COL     9   RATE    0.287952    



 STREAM LISTING     PERIOD      8   STEP        1

 LAYER ROW COL. STREAM  RCH.  FLOW INTO     FLOW TO   FLOW OUT OF   OVRLND.     DIRECT     STREAM       STREAM     STREAM     STREAM   STREAMBED  STREAMBED
                SEG.NO.  NO.  STRM. RCH.    AQUIFER    STRM. RCH.    RUNOFF     PRECIP       ET          HEAD       DEPTH      WIDTH   CONDCTNC.   GRADIENT

   1    1    1     1     1    2.8125E+01  2.5915E-01   2.7866E+01  0.000E+00  0.000E+00  0.000E+00  1.09427E+03  1.223E+00  1.364E+01  6.137E-02  1.408E+00
   1    2    2     1     2    2.7866E+01  4.0087E-01   2.7465E+01  0.000E+00  0.000E+00  0.000E+00  1.08928E+03  1.218E+00  1.358E+01  9.503E-02  1.406E+00
   1    3    3     1     3    2.7465E+01  3.4143E-01   2.7124E+01  0.000E+00  0.000E+00  0.000E+00  1.08363E+03  1.213E+00  1.351E+01  8.104E-02  1.404E+00
   1    3    4     1     4    2.7124E+01  3.1403E-01   2.6810E+01  0.000E+00  0.000E+00  0.000E+00  1.07862E+03  1.209E+00  1.344E+01  7.461E-02  1.403E+00
   1    4    5     2     1    2.4810E+01  3.2739E-01   2.4482E+01  0.000E+00  0.000E+00  0.000E+00  1.07313E+03  1.197E+00  1.200E+01  7.800E-02  1.399E+00
   1    5    6     2     2    2.4482E+01  2.5133E-01   2.4231E+01  0.000E+00  0.000E+00  0.000E+00  1.06770E+03  1.189E+00  1.200E+01  6.000E-02  1.396E+00
   1    6    6     2     3    2.4231E+01  2.5089E-01   2.3980E+01  0.000E+00  0.000E+00  0.000E+00  1.06297E+03  1.181E+00  1.200E+01  6.000E-02  1.394E+00
   1    7    6     2     4    2.3980E+01  2.5044E-01   2.3730E+01  0.000E+00  0.000E+00  0.000E+00  1.05825E+03  1.174E+00  1.200E+01  6.000E-02  1.391E+00
   1    8    6     2     5    2.3730E+01  2.5000E-01   2.3480E+01  0.000E+00  0.000E+00  0.000E+00  1.05353E+03  1.167E+00  1.200E+01  6.000E-02  1.389E+00
   1    3    5     3     1    2.0000E+00  2.8252E-01   1.7175E+00  0.000E+00  0.000E+00  0.000E+00  1.07555E+03  1.909E+00  9.636E+00  7.227E-02  1.955E+00
   1    3    6     3     2    1.7175E+00  2.4905E-01   1.4684E+00  0.000E+00  0.000E+00  0.000E+00  1.07264E+03  1.727E+00  8.909E+00  6.682E-02  1.864E+00
   1    3    7     3     3    1.4684E+00  1.9718E-01   1.2712E+00  0.000E+00  0.000E+00  0.000E+00  1.06987E+03  1.555E+00  8.218E+00  5.547E-02  1.777E+00
   1    4    8     3     4    1.2712E+00  2.2567E-01   1.0456E+00  0.000E+00  0.000E+00  0.000E+00  1.06682E+03  1.364E+00  7.455E+00  6.709E-02  1.682E+00
   1    5    8     3     5    1.0456E+00  1.5790E-01   8.8768E-01  0.000E+00  0.000E+00  0.000E+00  1.06362E+03  1.164E+00  6.655E+00  4.991E-02  1.582E+00
   1    6    8     3     6    8.8768E-01  5.5980E-02   8.3170E-01  0.000E+00  0.000E+00  0.000E+00  1.06158E+03  1.036E+00  6.145E+00  1.844E-02  1.518E+00
   1    5   10     4     1    1.0000E+01  9.0919E-02   9.9091E+00  0.000E+00  0.000E+00  0.000E+00  1.07836E+03  6.368E-01  1.000E+01  2.500E-02  1.212E+00
   1    5    9     4     2    9.9091E+00  1.8158E-01   9.7275E+00  0.000E+00  0.000E+00  0.000E+00  1.07154E+03  6.315E-01  1.000E+01  5.000E-02  1.211E+00
   1    6    8     4     3    9.7275E+00  1.2689E-01   9.6006E+00  0.000E+00  0.000E+00  0.000E+00  1.06381E+03  6.256E-01  1.000E+01  3.500E-02  1.209E+00
   1    6    8     5     1    1.0432E+01  2.2686E-01   1.0205E+01  0.000E+00  0.000E+00  0.000E+00  1.05868E+03  6.790E-01  1.542E+01  6.166E-02  1.226E+00
   1    7    7     5     2    1.0205E+01  2.7894E-01   9.9265E+00  0.000E+00  0.000E+00  0.000E+00  1.05417E+03  6.732E-01  1.519E+01  7.594E-02  1.224E+00
   1    8    7     5     3    9.9265E+00  1.9221E-01   9.7343E+00  0.000E+00  0.000E+00  0.000E+00  1.04992E+03  6.676E-01  1.497E+01  5.241E-02  1.223E+00
   1    8    6     5     4    9.7343E+00  1.3577E-01   9.5985E+00  0.000E+00  0.000E+00  0.000E+00  1.04691E+03  6.637E-01  1.482E+01  3.706E-02  1.221E+00
   1    9    6     6     1    9.5985E+00  2.2097E-01   9.3776E+00  0.000E+00  0.000E+00  0.000E+00  1.04341E+03  6.828E-01  1.200E+01  6.000E-02  1.228E+00
   1   10    7     6     2    9.3776E+00  2.2039E-01   9.1572E+00  0.000E+00  0.000E+00  0.000E+00  1.03885E+03  6.732E-01  1.200E+01  6.000E-02  1.224E+00
   1   11    7     6     3    9.1572E+00  2.1981E-01   8.9374E+00  0.000E+00  0.000E+00  0.000E+00  1.03430E+03  6.636E-01  1.200E+01  6.000E-02  1.221E+00
   1   12    7     6     4    8.9374E+00  2.1923E-01   8.7181E+00  0.000E+00  0.000E+00  0.000E+00  1.02974E+03  6.539E-01  1.200E+01  6.000E-02  1.218E+00
   1   13    7     6     5    8.7181E+00 -7.1585E-02   8.7897E+00  0.000E+00  0.000E+00  0.000E+00  1.02656E+03  6.506E-01  1.200E+01  2.400E-01 -9.942E-02
   1   14    9     7     1    1.5000E+02  1.3680E+00   1.4863E+02  0.000E+00  0.000E+00  0.000E+00  1.03987E+03  2.288E+00  5.529E+01  5.593E-01  8.153E-01
   1   13    8     7     2    1.4863E+02  1.9150E+00   1.4672E+02  0.000E+00  0.000E+00  0.000E+00  1.03478E+03  2.279E+00  5.526E+01  6.148E-01  1.038E+00
   1   13    7     7     3    1.4672E+02  1.5808E+00   1.4514E+02  0.000E+00  0.000E+00  0.000E+00  1.02969E+03  2.270E+00  5.521E+01  5.584E-01  9.437E-01
   1   13    6     8     1    1.5393E+02  9.2714E-01   1.5300E+02  0.000E+00  0.000E+00  0.000E+00  1.02472E+03  2.841E+00  4.120E+01  4.198E-01  7.362E-01
   1   13    5     8     2    1.5300E+02  1.8839E-01   1.5281E+02  0.000E+00  0.000E+00  0.000E+00  1.01846E+03  2.837E+00  4.114E+01  4.192E-01  1.498E-01
   1   13    4     8     3    1.5281E+02 -2.5594E+00   1.5537E+02  0.000E+00  0.000E+00  0.000E+00  1.01222E+03  2.845E+00  4.126E+01  4.204E+00 -2.029E-01
   1   13    3     8     4    1.5537E+02 -3.8116E+00   1.5918E+02  0.000E+00  0.000E+00  0.000E+00  1.00599E+03  2.867E+00  4.158E+01  4.237E+00 -2.999E-01
   1   13    2     8     5    1.5918E+02 -2.8276E+00   1.6201E+02  0.000E+00  0.000E+00  0.000E+00  9.99765E+02  2.890E+00  4.190E+01  4.270E+00 -2.207E-01
   1   13    1     8     6    1.6201E+02 -2.1347E+00   1.6414E+02  0.000E+00  0.000E+00  0.000E+00  9.94782E+02  2.907E+00  4.214E+01  2.577E+00 -2.761E-01
   1    8    6     9     1    2.3480E+01  0.0000E+00   2.3480E+01  0.000E+00  0.000E+00  0.000E+00  1.08253E+03  3.782E+00  4.000E+00  0.000E+00  2.261E+00
   1    8    5     9     2    2.3480E+01  0.0000E+00   2.3480E+01  0.000E+00  0.000E+00  0.000E+00  1.08203E+03  3.782E+00  4.000E+00  0.000E+00  2.261E+00



 UBDSV3 SAVING "           GW ET" ON UNIT  61 AT TIME STEP  1, STRESS PERIOD   8
 UBDSV3 SAVING "    UZF RECHARGE" ON UNIT  61 AT TIME STEP  1, STRESS PERIOD   8
 UBDSV3 SAVING " SURFACE LEAKAGE" ON UNIT  61 AT TIME STEP  1, STRESS PERIOD   8
 UBDSV3 SAVING "       HORT+DUNN" ON UNIT  61 AT TIME STEP  1, STRESS PERIOD   8
 UBDSV3 SAVING "  STORAGE CHANGE" ON UNIT  61 AT TIME STEP  1, STRESS PERIOD   8


UNSATURATED ZONE PACKAGE VOLUMETRIC BUDGET FOR  TIME STEP     1 STRESS PERIOD    8
  ------------------------------------------------------------------------------



     CUMULATIVE VOLUMES      L**3       RATES FOR THIS TIME STEP      L**3/T
     ------------------                 ------------------------

           IN:                                      IN:
           ---                                      ---
        INFILTRATION =   112563615.0670          INFILTRATION =         120.7880

          OUT:                                     OUT:
          ----                                     ----
              UZF ET =   107148724.9498                UZF ET =          60.8175
        UZF RECHARGE =       73224.0000          UZF RECHARGE =       0.0000E+00

            IN - OUT =     5341666.1172              IN - OUT =          59.9705

          STORAGE:                                 STORAGE:
          --------                                 --------
      STORAGE CHANGE =     5341653.4331        STORAGE CHANGE =          59.9705

 PERCENT DISCREPANCY IS DIFFERENCE BETWEEN IN-OUT MINUS CHANGE IN STORAGE
 DIVIDED BY THE AVERAGE OF IN AND OUT TIMES 100

 PERCENT DISCREPANCY =           0.00     PERCENT DISCREPANCY =           0.00






 

            AG WELLS      PERIOD    8   STEP   1
 AG WELL      1   LAYER   1   ROW     6   COL     4   RATE    -16.0767    
 AG WELL      2   LAYER   1   ROW     6   COL     5   RATE    -16.0767    
 AG WELL      3   LAYER   1   ROW     7   COL     4   RATE    -16.0767    
 AG WELL      4   LAYER   1   ROW     7   COL     5   RATE    -16.0767    
 AG WELL      5   LAYER   1   ROW     8   COL     4   RATE    -16.0767    
 AG WELL      6   LAYER   1   ROW     8   COL     5   RATE    -16.0767    
 
 

   DIVERSION SEGMENTS     PERIOD    8   STEP   1
 SEGMENT      9   RATE     23.4796    
 
 

        SW IRRIGATION     PERIOD    8   STEP   1
 SEGMENT      9   ROW     6   COL     4   RATE     3.91334    
 SEGMENT      9   ROW     6   COL     5   RATE     3.91334    
 SEGMENT      9   ROW     7   COL     4   RATE     3.91334    
 SEGMENT      9   ROW     7   COL     5   RATE     3.91334    
 SEGMENT      9   ROW     8   COL     4   RATE     3.91334    
 SEGMENT      9   ROW     8   COL     5   RATE     3.91334    
 
 

        GW IRRIGATION     PERIOD    8   STEP   1
 AG WELL      1   ROW     6   COL     4   RATE     16.0767    
 AG WELL      2   ROW     6   COL     5   RATE     16.0767    
 AG WELL      3   ROW     7   COL     4   RATE     16.0767    
 AG WELL      4   ROW     7   COL     5   RATE     16.0767    
 AG WELL      5   ROW     8   COL     4   RATE     16.0767    
 AG WELL      6   ROW     8   COL     5   RATE     16.0767    
 
1
  VOLUMETRIC BUDGET FOR AGRICULTURAL FIELDS AT  END OF TIME STEP    1, STRESS PERIOD   8
  ------------------------------------------------------------------------------

     CUMULATIVE VOLUMES      L**3       RATES FOR THIS TIME STEP      L**3/T
     ------------------                 ------------------------

           IN:                                      IN:
           ---                                      ---
               AG WELLS  =    33887940.0000                 AG WELLS  =          96.4604
      DIVERSION SEGMENTS =    65153288.0000        DIVERSION SEGMENTS =          23.4796
           GW IRRIGATION =           0.0000             GW IRRIGATION =           0.0000
           SW IRRIGATION =           0.0000             SW IRRIGATION =           0.0000
        SYSTEM LOSSES GW =           0.0000          SYSTEM LOSSES GW =           0.0000
        SYSTEM LOSSES SW =           0.0000          SYSTEM LOSSES SW =           0.0000

                TOTAL IN =    99041232.0000                  TOTAL IN =         119.9400

          OUT:                                     OUT:
          ----                                     ----
               AG WELLS  =           0.0000                 AG WELLS  =           0.0000
      DIVERSION SEGMENTS =           0.0000        DIVERSION SEGMENTS =           0.0000
           GW IRRIGATION =    33887940.0000             GW IRRIGATION =          96.4604
           SW IRRIGATION =    65154616.0000             SW IRRIGATION =          23.4801
        SYSTEM LOSSES GW =           0.0000          SYSTEM LOSSES GW =           0.0000
        SYSTEM LOSSES SW =           0.0000          SYSTEM LOSSES SW =           0.0000

               TOTAL OUT =    99042560.0000                 TOTAL OUT =         119.9405

                IN - OUT =       -1328.0000                  IN - OUT =      -4.7302E-04

     PERCENT DISCREPANCY =          -0.00         PERCENT DISCREPANCY =          -0.00



1
  VOLUMETRIC BUDGET FOR ENTIRE MODEL AT END OF TIME STEP    1, STRESS PERIOD   8
  ------------------------------------------------------------------------------

     CUMULATIVE VOLUMES      L**3       RATES FOR THIS TIME STEP      L**3/T
     ------------------                 ------------------------

           IN:                                      IN:
           ---                                      ---
             STORAGE     =    45602536.0000               STORAGE     =          96.9927
       CONSTANT HEAD     =           0.0000         CONSTANT HEAD     =           0.0000
     HEAD DEP BOUNDS     =     4592711.5000       HEAD DEP BOUNDS     =           0.2880
      STREAM LEAKAGE     =   189394368.0000        STREAM LEAKAGE     =          11.9068
        UZF RECHARGE     =       73223.9531          UZF RECHARGE     =           0.0000
               GW ET     =           0.0000                 GW ET     =           0.0000
     SURFACE LEAKAGE     =           0.0000       SURFACE LEAKAGE     =           0.0000
           AG WELLS      =           0.0000             AG WELLS      =           0.0000

                TOTAL IN =   239662832.0000                  TOTAL IN =         109.1874

          OUT:                                     OUT:
          ----                                     ----
             STORAGE     =    37837720.0000               STORAGE     =           1.0328
       CONSTANT HEAD     =           0.0000         CONSTANT HEAD     =           0.0000
     HEAD DEP BOUNDS     =     4605484.5000       HEAD DEP BOUNDS     =           0.2892
      STREAM LEAKAGE     =   163336688.0000        STREAM LEAKAGE     =          11.4049
        UZF RECHARGE     =           0.0000          UZF RECHARGE     =           0.0000
               GW ET     =           0.0000                 GW ET     =           0.0000
     SURFACE LEAKAGE     =           0.0000       SURFACE LEAKAGE     =           0.0000
           AG WELLS      =    33887940.0000             AG WELLS      =          96.4604

               TOTAL OUT =   239667824.0000                 TOTAL OUT =         109.1873

                IN - OUT =       -4992.0000                  IN - OUT =       4.5776E-05

     PERCENT DISCREPANCY =          -0.00         PERCENT DISCREPANCY =           0.00






         TIME SUMMARY AT END OF TIME STEP    1 IN STRESS PERIOD    8
                    SECONDS     MINUTES      HOURS       DAYS        YEARS
                    -----------------------------------------------------------
   TIME STEP LENGTH  87667.      1461.1      24.352      1.0147     2.77799E-03
 STRESS PERIOD TIME  87667.      1461.1      24.352      1.0147     2.77799E-03
         TOTAL TIME 1.59541E+07 2.65901E+05  4431.7      184.65     0.50555    
1
 
 SOLVING FOR HEAD 
                                                   Max.-Head-Change                         Max.-Flux-Residual
  Residual-Control   Outer-Iter.   Inner-Iter.     Column Row Layer    Maximum-Head-Change  Column Row Layer    Maximum-Flux-Residual          L2-NORM 
          0                 1           2             5    6     1       0.2118563017E-01       5    6    1         0.1155047436E+01      0.2622065094E+01
          0                 2           2             4    7     1      -0.1161494680E+00       5    6    1        -0.6300324611E+01      0.1539586594E+02
          0                 3           2             4    7     1       0.7909273461E-02       5    6    1         0.4409781973E+00      0.1078978811E+01
          0                 4           2             4    7     1      -0.3147177464E-03       5    6    1        -0.1803207845E-01      0.4422846701E-01
          0                 5           1             4    7     1       0.3880605456E-05       5    6    1         0.2282522000E-03      0.5802370231E-03

    ------------------------------------------------
       NWT REQUIRED            5 OUTER ITERATIONS 
       AND A TOTAL OF          9 INNER ITERATIONS.
    ------------------------------------------------

 NO OUTPUT CONTROL FOR STRESS PERIOD    8   TIME STEP    2
 
 SOLVING FOR HEAD 
                                                   Max.-Head-Change                         Max.-Flux-Residual
  Residual-Control   Outer-Iter.   Inner-Iter.     Column Row Layer    Maximum-Head-Change  Column Row Layer    Maximum-Flux-Residual          L2-NORM 
          0                 1           2             5    6     1       0.2338092614E-01       5    6    1         0.1275146116E+01      0.2895988074E+01
          0                 2           2             4    7     1      -0.3000695181E+00       5    6    1        -0.1618000445E+02      0.3956981414E+02
          0                 3           2             4    7     1       0.2043311230E-01       5    8    1         0.1135512950E+01      0.2771303778E+01
          0                 4           2             4    7     1      -0.8130551702E-03       5    8    1        -0.4642676403E-01      0.1133748540E+00
          0                 5           1             4    7     1       0.1002531851E-04       5    8    1         0.5872901163E-03      0.1447364683E-02

    ------------------------------------------------
       NWT REQUIRED            5 OUTER ITERATIONS 
       AND A TOTAL OF          9 INNER ITERATIONS.
    ------------------------------------------------

 NO OUTPUT CONTROL FOR STRESS PERIOD    8   TIME STEP    3
 
 SOLVING FOR HEAD 
                                                   Max.-Head-Change                         Max.-Flux-Residual
  Residual-Control   Outer-Iter.   Inner-Iter.     Column Row Layer    Maximum-Head-Change  Column Row Layer    Maximum-Flux-Residual          L2-NORM 
          0                 1           2             5    8     1       0.3059391867E-01       5    8    1         0.1677364144E+01      0.3757144762E+01
          0                 2           2             4    7     1      -0.1164965945E+00       5    8    1        -0.6356884942E+01      0.1549632662E+02
          0                 3           2             5    8     1       0.7964750307E-02       5    8    1         0.4513822736E+00      0.1088721626E+01
          0                 4           2             5    8     1      -0.3169251737E-03       5    8    1        -0.1846364863E-01      0.4463034020E-01
          0                 5           1             5    8     1       0.3907824501E-05       5    8    1         0.2342193154E-03      0.5852800932E-03

    ------------------------------------------------
       NWT REQUIRED            5 OUTER ITERATIONS 
       AND A TOTAL OF          9 INNER ITERATIONS.
    ------------------------------------------------

 NO OUTPUT CONTROL FOR STRESS PERIOD    8   TIME STEP    4
 
 SOLVING FOR HEAD 
                                                   Max.-Head-Change                         Max.-Flux-Residual
  Residual-Control   Outer-Iter.   Inner-Iter.     Column Row Layer    Maximum-Head-Change  Column Row Layer    Maximum-Flux-Residual          L2-NORM 
          0                 1           2             5    8     1       0.3236911326E-01       5    8    1         0.1774382521E+01      0.3984421506E+01
          0                 2           2             4    7     1      -0.3003396115E+00       5    8    1        -0.1622991216E+02      0.3965513922E+02
          0                 3           2             4    7     1       0.2045153444E-01       5    8    1         0.1135909929E+01      0.2776069912E+01
          0                 4           2             4    7     1      -0.8137879881E-03       5    8    1        -0.4644338144E-01      0.1135669575E+00
          0                 5           1             4    7     1       0.1003435497E-04       5    6    1         0.5876411606E-03      0.1448818650E-02

    ------------------------------------------------
       NWT REQUIRED            5 OUTER ITERATIONS 
       AND A TOTAL OF          9 INNER ITERATIONS.
    ------------------------------------------------

 OUTPUT CONTROL FOR STRESS PERIOD    8   TIME STEP    5
    PRINT BUDGET
    SAVE BUDGET
 UBDSV1 SAVING "         STORAGE" ON UNIT 102 AT TIME STEP  5, STRESS PERIOD   8
 UBDSV2 SAVING "   CONSTANT HEAD" ON UNIT 102 AT TIME STEP  5, STRESS PERIOD   8
 UBDSV1 SAVING "FLOW RIGHT FACE " ON UNIT 102 AT TIME STEP  5, STRESS PERIOD   8
 UBDSV1 SAVING "FLOW FRONT FACE " ON UNIT 102 AT TIME STEP  5, STRESS PERIOD   8

  HEAD DEP BOUNDS   PERIOD    8   STEP     5
 BOUNDARY      1   LAYER   1   ROW    13   COL     1   RATE   -0.288765    
 BOUNDARY      2   LAYER   1   ROW    14   COL     9   RATE    0.287954    



 STREAM LISTING     PERIOD      8   STEP        5

 LAYER ROW COL. STREAM  RCH.  FLOW INTO     FLOW TO   FLOW OUT OF   OVRLND.     DIRECT     STREAM       STREAM     STREAM     STREAM   STREAMBED  STREAMBED
                SEG.NO.  NO.  STRM. RCH.    AQUIFER    STRM. RCH.    RUNOFF     PRECIP       ET          HEAD       DEPTH      WIDTH   CONDCTNC.   GRADIENT

   1    1    1     1     1    2.8125E+01  2.5915E-01   2.7866E+01  0.000E+00  0.000E+00  0.000E+00  1.09427E+03  1.223E+00  1.364E+01  6.137E-02  1.408E+00
   1    2    2     1     2    2.7866E+01  4.0087E-01   2.7465E+01  0.000E+00  0.000E+00  0.000E+00  1.08928E+03  1.218E+00  1.358E+01  9.503E-02  1.406E+00
   1    3    3     1     3    2.7465E+01  3.4143E-01   2.7124E+01  0.000E+00  0.000E+00  0.000E+00  1.08363E+03  1.213E+00  1.351E+01  8.104E-02  1.404E+00
   1    3    4     1     4    2.7124E+01  3.1403E-01   2.6810E+01  0.000E+00  0.000E+00  0.000E+00  1.07862E+03  1.209E+00  1.344E+01  7.461E-02  1.403E+00
   1    4    5     2     1    2.4810E+01  3.2739E-01   2.4482E+01  0.000E+00  0.000E+00  0.000E+00  1.07313E+03  1.197E+00  1.200E+01  7.800E-02  1.399E+00
   1    5    6     2     2    2.4482E+01  2.5133E-01   2.4231E+01  0.000E+00  0.000E+00  0.000E+00  1.06770E+03  1.189E+00  1.200E+01  6.000E-02  1.396E+00
   1    6    6     2     3    2.4231E+01  2.5089E-01   2.3980E+01  0.000E+00  0.000E+00  0.000E+00  1.06297E+03  1.181E+00  1.200E+01  6.000E-02  1.394E+00
   1    7    6     2     4    2.3980E+01  2.5044E-01   2.3730E+01  0.000E+00  0.000E+00  0.000E+00  1.05825E+03  1.174E+00  1.200E+01  6.000E-02  1.391E+00
   1    8    6     2     5    2.3730E+01  2.5000E-01   2.3480E+01  0.000E+00  0.000E+00  0.000E+00  1.05353E+03  1.167E+00  1.200E+01  6.000E-02  1.389E+00
   1    3    5     3     1    2.0000E+00  2.8252E-01   1.7175E+00  0.000E+00  0.000E+00  0.000E+00  1.07555E+03  1.909E+00  9.636E+00  7.227E-02  1.955E+00
   1    3    6     3     2    1.7175E+00  2.4905E-01   1.4684E+00  0.000E+00  0.000E+00  0.000E+00  1.07264E+03  1.727E+00  8.909E+00  6.682E-02  1.864E+00
   1    3    7     3     3    1.4684E+00  1.9718E-01   1.2712E+00  0.000E+00  0.000E+00  0.000E+00  1.06987E+03  1.555E+00  8.218E+00  5.547E-02  1.777E+00
   1    4    8     3     4    1.2712E+00  2.2567E-01   1.0456E+00  0.000E+00  0.000E+00  0.000E+00  1.06682E+03  1.364E+00  7.455E+00  6.709E-02  1.682E+00
   1    5    8     3     5    1.0456E+00  1.5790E-01   8.8768E-01  0.000E+00  0.000E+00  0.000E+00  1.06362E+03  1.164E+00  6.655E+00  4.991E-02  1.582E+00
   1    6    8     3     6    8.8768E-01  5.5980E-02   8.3170E-01  0.000E+00  0.000E+00  0.000E+00  1.06158E+03  1.036E+00  6.145E+00  1.844E-02  1.518E+00
   1    5   10     4     1    1.0000E+01  9.0919E-02   9.9091E+00  0.000E+00  0.000E+00  0.000E+00  1.07836E+03  6.368E-01  1.000E+01  2.500E-02  1.212E+00
   1    5    9     4     2    9.9091E+00  1.8158E-01   9.7275E+00  0.000E+00  0.000E+00  0.000E+00  1.07154E+03  6.315E-01  1.000E+01  5.000E-02  1.211E+00
   1    6    8     4     3    9.7275E+00  1.2689E-01   9.6006E+00  0.000E+00  0.000E+00  0.000E+00  1.06381E+03  6.256E-01  1.000E+01  3.500E-02  1.209E+00
   1    6    8     5     1    1.0432E+01  2.2686E-01   1.0205E+01  0.000E+00  0.000E+00  0.000E+00  1.05868E+03  6.790E-01  1.542E+01  6.166E-02  1.226E+00
   1    7    7     5     2    1.0205E+01  2.7894E-01   9.9265E+00  0.000E+00  0.000E+00  0.000E+00  1.05417E+03  6.732E-01  1.519E+01  7.594E-02  1.224E+00
   1    8    7     5     3    9.9265E+00  1.9221E-01   9.7343E+00  0.000E+00  0.000E+00  0.000E+00  1.04992E+03  6.676E-01  1.497E+01  5.241E-02  1.223E+00
   1    8    6     5     4    9.7343E+00  1.3577E-01   9.5985E+00  0.000E+00  0.000E+00  0.000E+00  1.04691E+03  6.637E-01  1.482E+01  3.706E-02  1.221E+00
   1    9    6     6     1    9.5985E+00  2.2097E-01   9.3776E+00  0.000E+00  0.000E+00  0.000E+00  1.04341E+03  6.828E-01  1.200E+01  6.000E-02  1.228E+00
   1   10    7     6     2    9.3776E+00  2.2039E-01   9.1572E+00  0.000E+00  0.000E+00  0.000E+00  1.03885E+03  6.732E-01  1.200E+01  6.000E-02  1.224E+00
   1   11    7     6     3    9.1572E+00  2.1981E-01   8.9374E+00  0.000E+00  0.000E+00  0.000E+00  1.03430E+03  6.636E-01  1.200E+01  6.000E-02  1.221E+00
   1   12    7     6     4    8.9374E+00  2.1923E-01   8.7181E+00  0.000E+00  0.000E+00  0.000E+00  1.02974E+03  6.539E-01  1.200E+01  6.000E-02  1.218E+00
   1   13    7     6     5    8.7181E+00 -7.0842E-02   8.7890E+00  0.000E+00  0.000E+00  0.000E+00  1.02656E+03  6.506E-01  1.200E+01  2.400E-01 -9.839E-02
   1   14    9     7     1    1.5000E+02  1.3681E+00   1.4863E+02  0.000E+00  0.000E+00  0.000E+00  1.03987E+03  2.288E+00  5.529E+01  5.593E-01  8.153E-01
   1   13    8     7     2    1.4863E+02  1.9150E+00   1.4672E+02  0.000E+00  0.000E+00  0.000E+00  1.03478E+03  2.279E+00  5.526E+01  6.148E-01  1.038E+00
   1   13    7     7     3    1.4672E+02  1.5826E+00   1.4513E+02  0.000E+00  0.000E+00  0.000E+00  1.02969E+03  2.270E+00  5.521E+01  5.584E-01  9.447E-01
   1   13    6     8     1    1.5392E+02  9.2906E-01   1.5299E+02  0.000E+00  0.000E+00  0.000E+00  1.02472E+03  2.841E+00  4.119E+01  4.198E-01  7.377E-01
   1   13    5     8     2    1.5299E+02  1.9002E-01   1.5280E+02  0.000E+00  0.000E+00  0.000E+00  1.01846E+03  2.837E+00  4.114E+01  4.192E-01  1.511E-01
   1   13    4     8     3    1.5280E+02 -2.4919E+00   1.5530E+02  0.000E+00  0.000E+00  0.000E+00  1.01222E+03  2.845E+00  4.125E+01  4.204E+00 -1.976E-01
   1   13    3     8     4    1.5530E+02 -3.7506E+00   1.5905E+02  0.000E+00  0.000E+00  0.000E+00  1.00599E+03  2.867E+00  4.157E+01  4.236E+00 -2.952E-01
   1   13    2     8     5    1.5905E+02 -2.7608E+00   1.6181E+02  0.000E+00  0.000E+00  0.000E+00  9.99764E+02  2.889E+00  4.189E+01  4.268E+00 -2.156E-01
   1   13    1     8     6    1.6181E+02 -2.1093E+00   1.6392E+02  0.000E+00  0.000E+00  0.000E+00  9.94780E+02  2.905E+00  4.212E+01  2.576E+00 -2.730E-01
   1    8    6     9     1    2.3480E+01  0.0000E+00   2.3480E+01  0.000E+00  0.000E+00  0.000E+00  1.08253E+03  3.782E+00  4.000E+00  0.000E+00  2.261E+00
   1    8    5     9     2    2.3480E+01  0.0000E+00   2.3480E+01  0.000E+00  0.000E+00  0.000E+00  1.08203E+03  3.782E+00  4.000E+00  0.000E+00  2.261E+00



 UBDSV3 SAVING "           GW ET" ON UNIT  61 AT TIME STEP  5, STRESS PERIOD   8
 UBDSV3 SAVING "    UZF RECHARGE" ON UNIT  61 AT TIME STEP  5, STRESS PERIOD   8
 UBDSV3 SAVING " SURFACE LEAKAGE" ON UNIT  61 AT TIME STEP  5, STRESS PERIOD   8
 UBDSV3 SAVING "       HORT+DUNN" ON UNIT  61 AT TIME STEP  5, STRESS PERIOD   8
 UBDSV3 SAVING "  STORAGE CHANGE" ON UNIT  61 AT TIME STEP  5, STRESS PERIOD   8


UNSATURATED ZONE PACKAGE VOLUMETRIC BUDGET FOR  TIME STEP     5 STRESS PERIOD    8
  ------------------------------------------------------------------------------



     CUMULATIVE VOLUMES      L**3       RATES FOR THIS TIME STEP      L**3/T
     ------------------                 ------------------------

           IN:                                      IN:
           ---                                      ---
        INFILTRATION =   144490644.9256          INFILTRATION =         120.6424

          OUT:                                     OUT:
          ----                                     ----
              UZF ET =   128475393.9333                UZF ET =          60.8175
        UZF RECHARGE =       73224.0000          UZF RECHARGE =       0.0000E+00

            IN - OUT =    15942026.9922              IN - OUT =          59.8249

          STORAGE:                                 STORAGE:
          --------                                 --------
      STORAGE CHANGE =    15942013.7513        STORAGE CHANGE =          59.8249

 PERCENT DISCREPANCY IS DIFFERENCE BETWEEN IN-OUT MINUS CHANGE IN STORAGE
 DIVIDED BY THE AVERAGE OF IN AND OUT TIMES 100

 PERCENT DISCREPANCY =           0.00     PERCENT DISCREPANCY =          -0.00






 

            AG WELLS      PERIOD    8   STEP   5
 AG WELL      1   LAYER   1   ROW     6   COL     4   RATE    -16.0525    
 AG WELL      2   LAYER   1   ROW     6   COL     5   RATE    -16.0525    
 AG WELL      3   LAYER   1   ROW     7   COL     4   RATE    -16.0525    
 AG WELL      4   LAYER   1   ROW     7   COL     5   RATE    -16.0525    
 AG WELL      5   LAYER   1   ROW     8   COL     4   RATE    -16.0525    
 AG WELL      6   LAYER   1   ROW     8   COL     5   RATE    -16.0525    
 
 

   DIVERSION SEGMENTS     PERIOD    8   STEP   5
 SEGMENT      9   RATE     23.4796    
 
 

        SW IRRIGATION     PERIOD    8   STEP   5
 SEGMENT      9   ROW     6   COL     4   RATE     3.91334    
 SEGMENT      9   ROW     6   COL     5   RATE     3.91334    
 SEGMENT      9   ROW     7   COL     4   RATE     3.91334    
 SEGMENT      9   ROW     7   COL     5   RATE     3.91334    
 SEGMENT      9   ROW     8   COL     4   RATE     3.91334    
 SEGMENT      9   ROW     8   COL     5   RATE     3.91334    
 
 

        GW IRRIGATION     PERIOD    8   STEP   5
 AG WELL      1   ROW     6   COL     4   RATE     16.0525    
 AG WELL      2   ROW     6   COL     5   RATE     16.0525    
 AG WELL      3   ROW     7   COL     4   RATE     16.0525    
 AG WELL      4   ROW     7   COL     5   RATE     16.0525    
 AG WELL      5   ROW     8   COL     4   RATE     16.0525    
 AG WELL      6   ROW     8   COL     5   RATE     16.0525    
 
1
  VOLUMETRIC BUDGET FOR AGRICULTURAL FIELDS AT  END OF TIME STEP    5, STRESS PERIOD   8
  ------------------------------------------------------------------------------

     CUMULATIVE VOLUMES      L**3       RATES FOR THIS TIME STEP      L**3/T
     ------------------                 ------------------------

           IN:                                      IN:
           ---                                      ---
               AG WELLS  =    57284112.0000                 AG WELLS  =          96.3148
      DIVERSION SEGMENTS =    73386792.0000        DIVERSION SEGMENTS =          23.4796
           GW IRRIGATION =           0.0000             GW IRRIGATION =           0.0000
           SW IRRIGATION =           0.0000             SW IRRIGATION =           0.0000
        SYSTEM LOSSES GW =           0.0000          SYSTEM LOSSES GW =           0.0000
        SYSTEM LOSSES SW =           0.0000          SYSTEM LOSSES SW =           0.0000

                TOTAL IN =   130670904.0000                  TOTAL IN =         119.7944

          OUT:                                     OUT:
          ----                                     ----
               AG WELLS  =           0.0000                 AG WELLS  =           0.0000
      DIVERSION SEGMENTS =           0.0000        DIVERSION SEGMENTS =           0.0000
           GW IRRIGATION =    57284112.0000             GW IRRIGATION =          96.3148
           SW IRRIGATION =    73388280.0000             SW IRRIGATION =          23.4801
        SYSTEM LOSSES GW =           0.0000          SYSTEM LOSSES GW =           0.0000
        SYSTEM LOSSES SW =           0.0000          SYSTEM LOSSES SW =           0.0000

               TOTAL OUT =   130672392.0000                 TOTAL OUT =         119.7949

                IN - OUT =       -1488.0000                  IN - OUT =      -4.7302E-04

     PERCENT DISCREPANCY =          -0.00         PERCENT DISCREPANCY =          -0.00



1
  VOLUMETRIC BUDGET FOR ENTIRE MODEL AT END OF TIME STEP    5, STRESS PERIOD   8
  ------------------------------------------------------------------------------

     CUMULATIVE VOLUMES      L**3       RATES FOR THIS TIME STEP      L**3/T
     ------------------                 ------------------------

           IN:                                      IN:
           ---                                      ---
             STORAGE     =    69117512.0000               STORAGE     =          96.5521
       CONSTANT HEAD     =           0.0000         CONSTANT HEAD     =           0.0000
     HEAD DEP BOUNDS     =     4693687.5000       HEAD DEP BOUNDS     =           0.2880
      STREAM LEAKAGE     =   193570848.0000        STREAM LEAKAGE     =          11.9121
        UZF RECHARGE     =       73223.9531          UZF RECHARGE     =           0.0000
               GW ET     =           0.0000                 GW ET     =           0.0000
     SURFACE LEAKAGE     =           0.0000       SURFACE LEAKAGE     =           0.0000
           AG WELLS      =           0.0000             AG WELLS      =           0.0000

                TOTAL IN =   267455264.0000                  TOTAL IN =         108.7522

          OUT:                                     OUT:
          ----                                     ----
             STORAGE     =    38183736.0000               STORAGE     =           0.9651
       CONSTANT HEAD     =           0.0000         CONSTANT HEAD     =           0.0000
     HEAD DEP BOUNDS     =     4706797.0000       HEAD DEP BOUNDS     =           0.2888
      STREAM LEAKAGE     =   167285600.0000        STREAM LEAKAGE     =          11.1834
        UZF RECHARGE     =           0.0000          UZF RECHARGE     =           0.0000
               GW ET     =           0.0000                 GW ET     =           0.0000
     SURFACE LEAKAGE     =           0.0000       SURFACE LEAKAGE     =           0.0000
           AG WELLS      =    57284112.0000             AG WELLS      =          96.3148

               TOTAL OUT =   267460240.0000                 TOTAL OUT =         108.7521

                IN - OUT =       -4976.0000                  IN - OUT =       5.3406E-05

     PERCENT DISCREPANCY =          -0.00         PERCENT DISCREPANCY =           0.00






         TIME SUMMARY AT END OF TIME STEP    5 IN STRESS PERIOD    8
                    SECONDS     MINUTES      HOURS       DAYS        YEARS
                    -----------------------------------------------------------
   TIME STEP LENGTH  87667.      1461.1      24.352      1.0147     2.77799E-03
 STRESS PERIOD TIME 4.38333E+05  7305.6      121.76      5.0733     1.38899E-02
         TOTAL TIME 1.63048E+07 2.71746E+05  4529.1      188.71     0.51667    
1
 
 SOLVING FOR HEAD 
                                                   Max.-Head-Change                         Max.-Flux-Residual
  Residual-Control   Outer-Iter.   Inner-Iter.     Column Row Layer    Maximum-Head-Change  Column Row Layer    Maximum-Flux-Residual          L2-NORM 
          0                 1           2             5    8     1       0.3938652334E-01       5    8    1         0.2160671954E+01      0.4809626254E+01
          0                 2           2             4    7     1      -0.1167767698E+00       5    8    1        -0.6405689889E+01      0.1558036852E+02
          0                 3           2             4    7     1       0.7952002820E-02       5    8    1         0.4483896850E+00      0.1091929229E+01
          0                 4           2             4    7     1      -0.3164179272E-03       5    8    1        -0.1833868600E-01      0.4475845237E-01
          0                 5           1             4    7     1       0.3901569929E-05       5    8    1         0.2323740380E-03      0.5859721041E-03

    ------------------------------------------------
       NWT REQUIRED            5 OUTER ITERATIONS 
       AND A TOTAL OF          9 INNER ITERATIONS.
    ------------------------------------------------

 NO OUTPUT CONTROL FOR STRESS PERIOD    8   TIME STEP    6
 
 SOLVING FOR HEAD 
                                                   Max.-Head-Change                         Max.-Flux-Residual
  Residual-Control   Outer-Iter.   Inner-Iter.     Column Row Layer    Maximum-Head-Change  Column Row Layer    Maximum-Flux-Residual          L2-NORM 
          0                 1           2             5    8     1       0.4068908163E-01       5    8    1         0.2231291774E+01      0.4990547155E+01
          0                 2           2             4    7     1      -0.3006303010E+00       5    8    1        -0.1627560242E+02      0.3973539314E+02
          0                 3           2             4    7     1       0.2047133656E-01       5    8    1         0.1139126455E+01      0.2781691630E+01
          0                 4           2             4    7     1      -0.8145758962E-03       5    8    1        -0.4657670765E-01      0.1137950564E+00
          0                 5           1             4    7     1       0.1004407035E-04       5    6    1         0.5893650534E-03      0.1450809396E-02

    ------------------------------------------------
       NWT REQUIRED            5 OUTER ITERATIONS 
       AND A TOTAL OF          9 INNER ITERATIONS.
    ------------------------------------------------

 NO OUTPUT CONTROL FOR STRESS PERIOD    8   TIME STEP    7
 
 SOLVING FOR HEAD 
                                                   Max.-Head-Change                         Max.-Flux-Residual
  Residual-Control   Outer-Iter.   Inner-Iter.     Column Row Layer    Maximum-Head-Change  Column Row Layer    Maximum-Flux-Residual          L2-NORM 
          0                 1           2             5    8     1       0.4726667193E-01       5    8    1         0.2593031753E+01      0.5773655207E+01
          0                 2           2             5    7     1      -0.1172157795E+00       5    8    1        -0.6448925115E+01      0.1565886594E+02
          0                 3           2             5    7     1       0.7981899311E-02       5    8    1         0.4514212470E+00      0.1097404436E+01
          0                 4           2             5    7     1      -0.3176075292E-03       5    8    1        -0.1846317191E-01      0.4498097218E-01
          0                 5           1             5    7     1       0.3916242752E-05       5    8    1         0.2339852567E-03      0.5885481966E-03

    ------------------------------------------------
       NWT REQUIRED            5 OUTER ITERATIONS 
       AND A TOTAL OF          9 INNER ITERATIONS.
    ------------------------------------------------

 NO OUTPUT CONTROL FOR STRESS PERIOD    8   TIME STEP    8
 
 SOLVING FOR HEAD 
                                                   Max.-Head-Change                         Max.-Flux-Residual
  Residual-Control   Outer-Iter.   Inner-Iter.     Column Row Layer    Maximum-Head-Change  Column Row Layer    Maximum-Flux-Residual          L2-NORM 
          0                 1           2             5    8     1       0.4815943084E-01       5    8    1         0.2640794655E+01      0.5913310802E+01
          0                 2           2             4    7     1      -0.3009370150E+00       5    8    1        -0.1631655198E+02      0.3981053396E+02
          0                 3           2             4    7     1       0.2049222863E-01       5    8    1         0.1142008725E+01      0.2786959185E+01
          0                 4           2             4    7     1      -0.8154071804E-03       5    8    1        -0.4669612633E-01      0.1140096218E+00
          0                 5           1             4    7     1       0.1005432061E-04       5    8    1         0.5909542522E-03      0.1452863308E-02

    ------------------------------------------------
       NWT REQUIRED            5 OUTER ITERATIONS 
       AND A TOTAL OF          9 INNER ITERATIONS.
    ------------------------------------------------

 NO OUTPUT CONTROL FOR STRESS PERIOD    8   TIME STEP    9
 
 SOLVING FOR HEAD 
                                                   Max.-Head-Change                         Max.-Flux-Residual
  Residual-Control   Outer-Iter.   Inner-Iter.     Column Row Layer    Maximum-Head-Change  Column Row Layer    Maximum-Flux-Residual          L2-NORM 
          0                 1           2             5    8     1       0.5435459160E-01       5    8    1         0.2981218764E+01      0.6657891714E+01
          0                 2           2             5    6     1      -0.1177838968E+00       5    8    1        -0.6487743019E+01      0.1573245307E+02
          0                 3           2             5    6     1       0.8020589164E-02       5    8    1         0.4541385045E+00      0.1102531059E+01
          0                 4           2             5    6     1      -0.3191470196E-03       5    8    1        -0.1857430788E-01      0.4518865711E-01
          0                 5           1             5    6     1       0.3935214033E-05       5    8    1         0.2353937073E-03      0.5908558334E-03

    ------------------------------------------------
       NWT REQUIRED            5 OUTER ITERATIONS 
       AND A TOTAL OF          9 INNER ITERATIONS.
    ------------------------------------------------

 OUTPUT CONTROL FOR STRESS PERIOD    8   TIME STEP   10
    PRINT BUDGET
    SAVE BUDGET
 UBDSV1 SAVING "         STORAGE" ON UNIT 102 AT TIME STEP 10, STRESS PERIOD   8
 UBDSV2 SAVING "   CONSTANT HEAD" ON UNIT 102 AT TIME STEP 10, STRESS PERIOD   8
 UBDSV1 SAVING "FLOW RIGHT FACE " ON UNIT 102 AT TIME STEP 10, STRESS PERIOD   8
 UBDSV1 SAVING "FLOW FRONT FACE " ON UNIT 102 AT TIME STEP 10, STRESS PERIOD   8

  HEAD DEP BOUNDS   PERIOD    8   STEP    10
 BOUNDARY      1   LAYER   1   ROW    13   COL     1   RATE   -0.288331    
 BOUNDARY      2   LAYER   1   ROW    14   COL     9   RATE    0.287957    



 STREAM LISTING     PERIOD      8   STEP       10

 LAYER ROW COL. STREAM  RCH.  FLOW INTO     FLOW TO   FLOW OUT OF   OVRLND.     DIRECT     STREAM       STREAM     STREAM     STREAM   STREAMBED  STREAMBED
                SEG.NO.  NO.  STRM. RCH.    AQUIFER    STRM. RCH.    RUNOFF     PRECIP       ET          HEAD       DEPTH      WIDTH   CONDCTNC.   GRADIENT

   1    1    1     1     1    2.8125E+01  2.5915E-01   2.7866E+01  0.000E+00  0.000E+00  0.000E+00  1.09427E+03  1.223E+00  1.364E+01  6.137E-02  1.408E+00
   1    2    2     1     2    2.7866E+01  4.0087E-01   2.7465E+01  0.000E+00  0.000E+00  0.000E+00  1.08928E+03  1.218E+00  1.358E+01  9.503E-02  1.406E+00
   1    3    3     1     3    2.7465E+01  3.4143E-01   2.7124E+01  0.000E+00  0.000E+00  0.000E+00  1.08363E+03  1.213E+00  1.351E+01  8.104E-02  1.404E+00
   1    3    4     1     4    2.7124E+01  3.1403E-01   2.6810E+01  0.000E+00  0.000E+00  0.000E+00  1.07862E+03  1.209E+00  1.344E+01  7.461E-02  1.403E+00
   1    4    5     2     1    2.4810E+01  3.2739E-01   2.4482E+01  0.000E+00  0.000E+00  0.000E+00  1.07313E+03  1.197E+00  1.200E+01  7.800E-02  1.399E+00
   1    5    6     2     2    2.4482E+01  2.5133E-01   2.4231E+01  0.000E+00  0.000E+00  0.000E+00  1.06770E+03  1.189E+00  1.200E+01  6.000E-02  1.396E+00
   1    6    6     2     3    2.4231E+01  2.5089E-01   2.3980E+01  0.000E+00  0.000E+00  0.000E+00  1.06297E+03  1.181E+00  1.200E+01  6.000E-02  1.394E+00
   1    7    6     2     4    2.3980E+01  2.5044E-01   2.3730E+01  0.000E+00  0.000E+00  0.000E+00  1.05825E+03  1.174E+00  1.200E+01  6.000E-02  1.391E+00
   1    8    6     2     5    2.3730E+01  2.5000E-01   2.3480E+01  0.000E+00  0.000E+00  0.000E+00  1.05353E+03  1.167E+00  1.200E+01  6.000E-02  1.389E+00
   1    3    5     3     1    2.0000E+00  2.8252E-01   1.7175E+00  0.000E+00  0.000E+00  0.000E+00  1.07555E+03  1.909E+00  9.636E+00  7.227E-02  1.955E+00
   1    3    6     3     2    1.7175E+00  2.4905E-01   1.4684E+00  0.000E+00  0.000E+00  0.000E+00  1.07264E+03  1.727E+00  8.909E+00  6.682E-02  1.864E+00
   1    3    7     3     3    1.4684E+00  1.9718E-01   1.2712E+00  0.000E+00  0.000E+00  0.000E+00  1.06987E+03  1.555E+00  8.218E+00  5.547E-02  1.777E+00
   1    4    8     3     4    1.2712E+00  2.2567E-01   1.0456E+00  0.000E+00  0.000E+00  0.000E+00  1.06682E+03  1.364E+00  7.455E+00  6.709E-02  1.682E+00
   1    5    8     3     5    1.0456E+00  1.5790E-01   8.8768E-01  0.000E+00  0.000E+00  0.000E+00  1.06362E+03  1.164E+00  6.655E+00  4.991E-02  1.582E+00
   1    6    8     3     6    8.8768E-01  5.5980E-02   8.3170E-01  0.000E+00  0.000E+00  0.000E+00  1.06158E+03  1.036E+00  6.145E+00  1.844E-02  1.518E+00
   1    5   10     4     1    1.0000E+01  9.0919E-02   9.9091E+00  0.000E+00  0.000E+00  0.000E+00  1.07836E+03  6.368E-01  1.000E+01  2.500E-02  1.212E+00
   1    5    9     4     2    9.9091E+00  1.8158E-01   9.7275E+00  0.000E+00  0.000E+00  0.000E+00  1.07154E+03  6.315E-01  1.000E+01  5.000E-02  1.211E+00
   1    6    8     4     3    9.7275E+00  1.2689E-01   9.6006E+00  0.000E+00  0.000E+00  0.000E+00  1.06381E+03  6.256E-01  1.000E+01  3.500E-02  1.209E+00
   1    6    8     5     1    1.0432E+01  2.2686E-01   1.0205E+01  0.000E+00  0.000E+00  0.000E+00  1.05868E+03  6.790E-01  1.542E+01  6.166E-02  1.226E+00
   1    7    7     5     2    1.0205E+01  2.7894E-01   9.9265E+00  0.000E+00  0.000E+00  0.000E+00  1.05417E+03  6.732E-01  1.519E+01  7.594E-02  1.224E+00
   1    8    7     5     3    9.9265E+00  1.9221E-01   9.7343E+00  0.000E+00  0.000E+00  0.000E+00  1.04992E+03  6.676E-01  1.497E+01  5.241E-02  1.223E+00
   1    8    6     5     4    9.7343E+00  1.3577E-01   9.5985E+00  0.000E+00  0.000E+00  0.000E+00  1.04691E+03  6.637E-01  1.482E+01  3.706E-02  1.221E+00
   1    9    6     6     1    9.5985E+00  2.2097E-01   9.3776E+00  0.000E+00  0.000E+00  0.000E+00  1.04341E+03  6.828E-01  1.200E+01  6.000E-02  1.228E+00
   1   10    7     6     2    9.3776E+00  2.2039E-01   9.1572E+00  0.000E+00  0.000E+00  0.000E+00  1.03885E+03  6.732E-01  1.200E+01  6.000E-02  1.224E+00
   1   11    7     6     3    9.1572E+00  2.1981E-01   8.9374E+00  0.000E+00  0.000E+00  0.000E+00  1.03430E+03  6.636E-01  1.200E+01  6.000E-02  1.221E+00
   1   12    7     6     4    8.9374E+00  2.1923E-01   8.7181E+00  0.000E+00  0.000E+00  0.000E+00  1.02974E+03  6.539E-01  1.200E+01  6.000E-02  1.218E+00
   1   13    7     6     5    8.7181E+00 -7.0009E-02   8.7881E+00  0.000E+00  0.000E+00  0.000E+00  1.02656E+03  6.505E-01  1.200E+01  2.400E-01 -9.723E-02
   1   14    9     7     1    1.5000E+02  1.3681E+00   1.4863E+02  0.000E+00  0.000E+00  0.000E+00  1.03987E+03  2.288E+00  5.529E+01  5.593E-01  8.154E-01
   1   13    8     7     2    1.4863E+02  1.9151E+00   1.4672E+02  0.000E+00  0.000E+00  0.000E+00  1.03478E+03  2.279E+00  5.526E+01  6.148E-01  1.038E+00
   1   13    7     7     3    1.4672E+02  1.5845E+00   1.4513E+02  0.000E+00  0.000E+00  0.000E+00  1.02969E+03  2.270E+00  5.521E+01  5.584E-01  9.459E-01
   1   13    6     8     1    1.5392E+02  9.3119E-01   1.5299E+02  0.000E+00  0.000E+00  0.000E+00  1.02472E+03  2.841E+00  4.119E+01  4.198E-01  7.394E-01
   1   13    5     8     2    1.5299E+02  1.9210E-01   1.5280E+02  0.000E+00  0.000E+00  0.000E+00  1.01846E+03  2.837E+00  4.114E+01  4.192E-01  1.527E-01
   1   13    4     8     3    1.5280E+02 -2.4358E+00   1.5523E+02  0.000E+00  0.000E+00  0.000E+00  1.01222E+03  2.845E+00  4.125E+01  4.204E+00 -1.932E-01
   1   13    3     8     4    1.5523E+02 -3.6970E+00   1.5893E+02  0.000E+00  0.000E+00  0.000E+00  1.00599E+03  2.866E+00  4.156E+01  4.235E+00 -2.910E-01
   1   13    2     8     5    1.5893E+02 -2.7006E+00   1.6163E+02  0.000E+00  0.000E+00  0.000E+00  9.99763E+02  2.888E+00  4.187E+01  4.267E+00 -2.110E-01
   1   13    1     8     6    1.6163E+02 -2.0823E+00   1.6371E+02  0.000E+00  0.000E+00  0.000E+00  9.94779E+02  2.904E+00  4.211E+01  2.574E+00 -2.696E-01
   1    8    6     9     1    2.3480E+01  0.0000E+00   2.3480E+01  0.000E+00  0.000E+00  0.000E+00  1.08253E+03  3.782E+00  4.000E+00  0.000E+00  2.261E+00
   1    8    5     9     2    2.3480E+01  0.0000E+00   2.3480E+01  0.000E+00  0.000E+00  0.000E+00  1.08203E+03  3.782E+00  4.000E+00  0.000E+00  2.261E+00



 UBDSV3 SAVING "           GW ET" ON UNIT  61 AT TIME STEP 10, STRESS PERIOD   8
 UBDSV3 SAVING "    UZF RECHARGE" ON UNIT  61 AT TIME STEP 10, STRESS PERIOD   8
 UBDSV3 SAVING " SURFACE LEAKAGE" ON UNIT  61 AT TIME STEP 10, STRESS PERIOD   8
 UBDSV3 SAVING "       HORT+DUNN" ON UNIT  61 AT TIME STEP 10, STRESS PERIOD   8
 UBDSV3 SAVING "  STORAGE CHANGE" ON UNIT  61 AT TIME STEP 10, STRESS PERIOD   8


UNSATURATED ZONE PACKAGE VOLUMETRIC BUDGET FOR  TIME STEP    10 STRESS PERIOD    8
  ------------------------------------------------------------------------------



     CUMULATIVE VOLUMES      L**3       RATES FOR THIS TIME STEP      L**3/T
     ------------------                 ------------------------

           IN:                                      IN:
           ---                                      ---
        INFILTRATION =   181808653.9050          INFILTRATION =          61.4653

          OUT:                                     OUT:
          ----                                     ----
              UZF ET =   155133730.1627                UZF ET =          60.8175
        UZF RECHARGE =       73224.0000          UZF RECHARGE =       0.0000E+00

            IN - OUT =    26601699.7422              IN - OUT =           0.6478

          STORAGE:                                 STORAGE:
          --------                                 --------
      STORAGE CHANGE =    26601685.9808        STORAGE CHANGE =           0.6478

 PERCENT DISCREPANCY IS DIFFERENCE BETWEEN IN-OUT MINUS CHANGE IN STORAGE
 DIVIDED BY THE AVERAGE OF IN AND OUT TIMES 100

 PERCENT DISCREPANCY =           0.00     PERCENT DISCREPANCY =           0.00






 

            AG WELLS      PERIOD    8   STEP  10
 AG WELL      1   LAYER   1   ROW     6   COL     4   RATE    -6.18962    
 AG WELL      2   LAYER   1   ROW     6   COL     5   RATE    -6.18962    
 AG WELL      3   LAYER   1   ROW     7   COL     4   RATE    -6.18962    
 AG WELL      4   LAYER   1   ROW     7   COL     5   RATE    -6.18962    
 AG WELL      5   LAYER   1   ROW     8   COL     4   RATE    -6.18962    
 AG WELL      6   LAYER   1   ROW     8   COL     5   RATE    -6.18962    
 
 

   DIVERSION SEGMENTS     PERIOD    8   STEP  10
 SEGMENT      9   RATE     23.4796    
 
 

        SW IRRIGATION     PERIOD    8   STEP  10
 SEGMENT      9   ROW     6   COL     4   RATE     3.91334    
 SEGMENT      9   ROW     6   COL     5   RATE     3.91334    
 SEGMENT      9   ROW     7   COL     4   RATE     3.91334    
 SEGMENT      9   ROW     7   COL     5   RATE     3.91334    
 SEGMENT      9   ROW     8   COL     4   RATE     3.91334    
 SEGMENT      9   ROW     8   COL     5   RATE     3.91334    
 
 

        GW IRRIGATION     PERIOD    8   STEP  10
 AG WELL      1   ROW     6   COL     4   RATE     6.18962    
 AG WELL      2   ROW     6   COL     5   RATE     6.18962    
 AG WELL      3   ROW     7   COL     4   RATE     6.18962    
 AG WELL      4   ROW     7   COL     5   RATE     6.18962    
 AG WELL      5   ROW     8   COL     4   RATE     6.18962    
 AG WELL      6   ROW     8   COL     5   RATE     6.18962    
 
1
  VOLUMETRIC BUDGET FOR AGRICULTURAL FIELDS AT  END OF TIME STEP   10, STRESS PERIOD   8
  ------------------------------------------------------------------------------

     CUMULATIVE VOLUMES      L**3       RATES FOR THIS TIME STEP      L**3/T
     ------------------                 ------------------------

           IN:                                      IN:
           ---                                      ---
               AG WELLS  =    83938544.0000                 AG WELLS  =          37.1377
      DIVERSION SEGMENTS =    83678672.0000        DIVERSION SEGMENTS =          23.4796
           GW IRRIGATION =           0.0000             GW IRRIGATION =           0.0000
           SW IRRIGATION =           0.0000             SW IRRIGATION =           0.0000
        SYSTEM LOSSES GW =           0.0000          SYSTEM LOSSES GW =           0.0000
        SYSTEM LOSSES SW =           0.0000          SYSTEM LOSSES SW =           0.0000

                TOTAL IN =   167617216.0000                  TOTAL IN =          60.6173

          OUT:                                     OUT:
          ----                                     ----
               AG WELLS  =           0.0000                 AG WELLS  =           0.0000
      DIVERSION SEGMENTS =           0.0000        DIVERSION SEGMENTS =           0.0000
           GW IRRIGATION =    83938544.0000             GW IRRIGATION =          37.1377
           SW IRRIGATION =    83680360.0000             SW IRRIGATION =          23.4801
        SYSTEM LOSSES GW =           0.0000          SYSTEM LOSSES GW =           0.0000
        SYSTEM LOSSES SW =           0.0000          SYSTEM LOSSES SW =           0.0000

               TOTAL OUT =   167618912.0000                 TOTAL OUT =          60.6178

                IN - OUT =       -1696.0000                  IN - OUT =      -4.6921E-04

     PERCENT DISCREPANCY =          -0.00         PERCENT DISCREPANCY =          -0.00



1
  VOLUMETRIC BUDGET FOR ENTIRE MODEL AT END OF TIME STEP   10, STRESS PERIOD   8
  ------------------------------------------------------------------------------

     CUMULATIVE VOLUMES      L**3       RATES FOR THIS TIME STEP      L**3/T
     ------------------                 ------------------------

           IN:                                      IN:
           ---                                      ---
             STORAGE     =    95800104.0000               STORAGE     =          37.0964
       CONSTANT HEAD     =           0.0000         CONSTANT HEAD     =           0.0000
     HEAD DEP BOUNDS     =     4819907.5000       HEAD DEP BOUNDS     =           0.2880
      STREAM LEAKAGE     =   198793968.0000        STREAM LEAKAGE     =          11.9184
        UZF RECHARGE     =       73223.9531          UZF RECHARGE     =           0.0000
               GW ET     =           0.0000                 GW ET     =           0.0000
     SURFACE LEAKAGE     =           0.0000       SURFACE LEAKAGE     =           0.0000
           AG WELLS      =           0.0000             AG WELLS      =           0.0000

                TOTAL IN =   299487200.0000                  TOTAL IN =          49.3027

          OUT:                                     OUT:
          ----                                     ----
             STORAGE     =    38587280.0000               STORAGE     =           0.8909
       CONSTANT HEAD     =           0.0000         CONSTANT HEAD     =           0.0000
     HEAD DEP BOUNDS     =     4833255.5000       HEAD DEP BOUNDS     =           0.2883
      STREAM LEAKAGE     =   172133104.0000        STREAM LEAKAGE     =          10.9857
        UZF RECHARGE     =           0.0000          UZF RECHARGE     =           0.0000
               GW ET     =           0.0000                 GW ET     =           0.0000
     SURFACE LEAKAGE     =           0.0000       SURFACE LEAKAGE     =           0.0000
           AG WELLS      =    83938544.0000             AG WELLS      =          37.1377

               TOTAL OUT =   299492160.0000                 TOTAL OUT =          49.3027

                IN - OUT =       -4960.0000                  IN - OUT =       2.6703E-05

     PERCENT DISCREPANCY =          -0.00         PERCENT DISCREPANCY =           0.00






         TIME SUMMARY AT END OF TIME STEP   10 IN STRESS PERIOD    8
                    SECONDS     MINUTES      HOURS       DAYS        YEARS
                    -----------------------------------------------------------
   TIME STEP LENGTH  87667.      1461.1      24.352      1.0147     2.77799E-03
 STRESS PERIOD TIME 8.76667E+05  14611.      243.52      10.147     2.77799E-02
         TOTAL TIME 1.67431E+07 2.79052E+05  4650.9      193.79     0.53056    
1
 
 SOLVING FOR HEAD 
                                                   Max.-Head-Change                         Max.-Flux-Residual
  Residual-Control   Outer-Iter.   Inner-Iter.     Column Row Layer    Maximum-Head-Change  Column Row Layer    Maximum-Flux-Residual          L2-NORM 
          0                 1           2             5    8     1       0.5489069932E-01       5    8    1         0.3009117215E+01      0.6761057242E+01
          0                 2           2             4    7     1      -0.3012560135E+00       5    8    1        -0.1635338347E+02      0.3988099907E+02
          0                 3           2             4    7     1       0.2051395612E-01       5    8    1         0.1144600668E+01      0.2791902851E+01
          0                 4           2             4    7     1      -0.8162717125E-03       5    8    1        -0.4680346811E-01      0.1142115592E+00
          0                 5           1             4    7     1       0.1006498072E-04       5    8    1         0.5924050363E-03      0.1454918021E-02

    ------------------------------------------------
       NWT REQUIRED            5 OUTER ITERATIONS 
       AND A TOTAL OF          9 INNER ITERATIONS.
    ------------------------------------------------

 NO OUTPUT CONTROL FOR STRESS PERIOD    8   TIME STEP   11
 
 SOLVING FOR HEAD 
                                                   Max.-Head-Change                         Max.-Flux-Residual
  Residual-Control   Outer-Iter.   Inner-Iter.     Column Row Layer    Maximum-Head-Change  Column Row Layer    Maximum-Flux-Residual          L2-NORM 
          0                 1           2             5    8     1       0.6075295223E-01       5    8    1         0.3331011531E+01      0.7470924366E+01
          0                 2           2             5    6     1      -0.1183942148E+00       5    8    1        -0.6522772977E+01      0.1580165321E+02
          0                 3           2             5    6     1       0.8062149898E-02       5    8    1         0.4565906141E+00      0.1107352399E+01
          0                 4           2             5    6     1      -0.3208007586E-03       5    8    1        -0.1867459925E-01      0.4538260607E-01
          0                 5           1             5    6     1       0.3955605662E-05       5    8    1         0.2366647161E-03      0.5928114150E-03

    ------------------------------------------------
       NWT REQUIRED            5 OUTER ITERATIONS 
       AND A TOTAL OF          9 INNER ITERATIONS.
    ------------------------------------------------

 NO OUTPUT CONTROL FOR STRESS PERIOD    8   TIME STEP   12
 
 SOLVING FOR HEAD 
                                                   Max.-Head-Change                         Max.-Flux-Residual
  Residual-Control   Outer-Iter.   Inner-Iter.     Column Row Layer    Maximum-Head-Change  Column Row Layer    Maximum-Flux-Residual          L2-NORM 
          0                 1           2             5    8     1       0.6097811701E-01       5    8    1         0.3341616032E+01      0.7541857346E+01
          0                 2           2             4    7     1      -0.3015850382E+00       5    8    1        -0.1638668407E+02      0.3994731144E+02
          0                 3           2             4    7     1       0.2053636537E-01       5    8    1         0.1146943675E+01      0.2796556830E+01
          0                 4           2             4    7     1      -0.8171633768E-03       5    8    1        -0.4690045463E-01      0.1144021549E+00
          0                 5           1             4    7     1       0.1007597520E-04       5    8    1         0.5937127871E-03      0.1457036221E-02

    ------------------------------------------------
       NWT REQUIRED            5 OUTER ITERATIONS 
       AND A TOTAL OF          9 INNER ITERATIONS.
    ------------------------------------------------

 NO OUTPUT CONTROL FOR STRESS PERIOD    8   TIME STEP   13
 
 SOLVING FOR HEAD 
                                                   Max.-Head-Change                         Max.-Flux-Residual
  Residual-Control   Outer-Iter.   Inner-Iter.     Column Row Layer    Maximum-Head-Change  Column Row Layer    Maximum-Flux-Residual          L2-NORM 
          0                 1           2             5    8     1       0.6654933580E-01       5    8    1         0.3647333631E+01      0.8220529835E+01
          0                 2           2             5    6     1      -0.1189498210E+00       5    8    1        -0.6554404369E+01      0.1586658163E+02
          0                 3           2             5    6     1       0.8099985010E-02       5    8    1         0.4588048303E+00      0.1111876184E+01
          0                 4           2             5    6     1      -0.3223062512E-03       5    8    1        -0.1876516074E-01      0.4556744654E-01
          0                 5           1             5    6     1       0.3974168760E-05       5    8    1         0.2378124000E-03      0.5950527495E-03

    ------------------------------------------------
       NWT REQUIRED            5 OUTER ITERATIONS 
       AND A TOTAL OF          9 INNER ITERATIONS.
    ------------------------------------------------

 NO OUTPUT CONTROL FOR STRESS PERIOD    8   TIME STEP   14
 
 SOLVING FOR HEAD 
                                                   Max.-Head-Change                         Max.-Flux-Residual
  Residual-Control   Outer-Iter.   Inner-Iter.     Column Row Layer    Maximum-Head-Change  Column Row Layer    Maximum-Flux-Residual          L2-NORM 
          0                 1           2             5    8     1       0.6650231108E-01       5    8    1         0.3642821143E+01      0.8262940098E+01
          0                 2           2             4    7     1      -0.3019193177E+00       5    8    1        -0.1641680379E+02      0.4000957492E+02
          0                 3           2             4    7     1       0.2055913157E-01       5    8    1         0.1149062495E+01      0.2800928268E+01
          0                 4           2             4    7     1      -0.8180692493E-03       5    8    1        -0.4698812228E-01      0.1145814880E+00
          0                 5           1             4    7     1       0.1008714510E-04       5    8    1         0.5948923024E-03      0.1458984737E-02

    ------------------------------------------------
       NWT REQUIRED            5 OUTER ITERATIONS 
       AND A TOTAL OF          9 INNER ITERATIONS.
    ------------------------------------------------

 OUTPUT CONTROL FOR STRESS PERIOD    8   TIME STEP   15
    PRINT BUDGET
    SAVE BUDGET
 UBDSV1 SAVING "         STORAGE" ON UNIT 102 AT TIME STEP 15, STRESS PERIOD   8
 UBDSV2 SAVING "   CONSTANT HEAD" ON UNIT 102 AT TIME STEP 15, STRESS PERIOD   8
 UBDSV1 SAVING "FLOW RIGHT FACE " ON UNIT 102 AT TIME STEP 15, STRESS PERIOD   8
 UBDSV1 SAVING "FLOW FRONT FACE " ON UNIT 102 AT TIME STEP 15, STRESS PERIOD   8

  HEAD DEP BOUNDS   PERIOD    8   STEP    15
 BOUNDARY      1   LAYER   1   ROW    13   COL     1   RATE   -0.287979    
 BOUNDARY      2   LAYER   1   ROW    14   COL     9   RATE    0.287959    



 STREAM LISTING     PERIOD      8   STEP       15

 LAYER ROW COL. STREAM  RCH.  FLOW INTO     FLOW TO   FLOW OUT OF   OVRLND.     DIRECT     STREAM       STREAM     STREAM     STREAM   STREAMBED  STREAMBED
                SEG.NO.  NO.  STRM. RCH.    AQUIFER    STRM. RCH.    RUNOFF     PRECIP       ET          HEAD       DEPTH      WIDTH   CONDCTNC.   GRADIENT

   1    1    1     1     1    2.8125E+01  2.5915E-01   2.7866E+01  0.000E+00  0.000E+00  0.000E+00  1.09427E+03  1.223E+00  1.364E+01  6.137E-02  1.408E+00
   1    2    2     1     2    2.7866E+01  4.0087E-01   2.7465E+01  0.000E+00  0.000E+00  0.000E+00  1.08928E+03  1.218E+00  1.358E+01  9.503E-02  1.406E+00
   1    3    3     1     3    2.7465E+01  3.4142E-01   2.7123E+01  0.000E+00  0.000E+00  0.000E+00  1.08363E+03  1.213E+00  1.351E+01  8.103E-02  1.404E+00
   1    3    4     1     4    2.7123E+01  3.1403E-01   2.6809E+01  0.000E+00  0.000E+00  0.000E+00  1.07862E+03  1.209E+00  1.344E+01  7.461E-02  1.403E+00
   1    4    5     2     1    2.4809E+01  3.2739E-01   2.4482E+01  0.000E+00  0.000E+00  0.000E+00  1.07313E+03  1.197E+00  1.200E+01  7.800E-02  1.399E+00
   1    5    6     2     2    2.4482E+01  2.5133E-01   2.4231E+01  0.000E+00  0.000E+00  0.000E+00  1.06770E+03  1.189E+00  1.200E+01  6.000E-02  1.396E+00
   1    6    6     2     3    2.4231E+01  2.5089E-01   2.3980E+01  0.000E+00  0.000E+00  0.000E+00  1.06297E+03  1.181E+00  1.200E+01  6.000E-02  1.394E+00
   1    7    6     2     4    2.3980E+01  2.5044E-01   2.3729E+01  0.000E+00  0.000E+00  0.000E+00  1.05825E+03  1.174E+00  1.200E+01  6.000E-02  1.391E+00
   1    8    6     2     5    2.3729E+01  2.5000E-01   2.3479E+01  0.000E+00  0.000E+00  0.000E+00  1.05353E+03  1.167E+00  1.200E+01  6.000E-02  1.389E+00
   1    3    5     3     1    2.0000E+00  2.8252E-01   1.7175E+00  0.000E+00  0.000E+00  0.000E+00  1.07555E+03  1.909E+00  9.636E+00  7.227E-02  1.955E+00
   1    3    6     3     2    1.7175E+00  2.4905E-01   1.4684E+00  0.000E+00  0.000E+00  0.000E+00  1.07264E+03  1.727E+00  8.909E+00  6.682E-02  1.864E+00
   1    3    7     3     3    1.4684E+00  1.9718E-01   1.2712E+00  0.000E+00  0.000E+00  0.000E+00  1.06987E+03  1.555E+00  8.218E+00  5.547E-02  1.777E+00
   1    4    8     3     4    1.2712E+00  2.2567E-01   1.0456E+00  0.000E+00  0.000E+00  0.000E+00  1.06682E+03  1.364E+00  7.455E+00  6.709E-02  1.682E+00
   1    5    8     3     5    1.0456E+00  1.5790E-01   8.8768E-01  0.000E+00  0.000E+00  0.000E+00  1.06362E+03  1.164E+00  6.655E+00  4.991E-02  1.582E+00
   1    6    8     3     6    8.8768E-01  5.5980E-02   8.3170E-01  0.000E+00  0.000E+00  0.000E+00  1.06158E+03  1.036E+00  6.145E+00  1.844E-02  1.518E+00
   1    5   10     4     1    1.0000E+01  9.0919E-02   9.9091E+00  0.000E+00  0.000E+00  0.000E+00  1.07836E+03  6.368E-01  1.000E+01  2.500E-02  1.212E+00
   1    5    9     4     2    9.9091E+00  1.8158E-01   9.7275E+00  0.000E+00  0.000E+00  0.000E+00  1.07154E+03  6.315E-01  1.000E+01  5.000E-02  1.211E+00
   1    6    8     4     3    9.7275E+00  1.2689E-01   9.6006E+00  0.000E+00  0.000E+00  0.000E+00  1.06381E+03  6.256E-01  1.000E+01  3.500E-02  1.209E+00
   1    6    8     5     1    1.0432E+01  2.2686E-01   1.0205E+01  0.000E+00  0.000E+00  0.000E+00  1.05868E+03  6.790E-01  1.542E+01  6.166E-02  1.226E+00
   1    7    7     5     2    1.0205E+01  2.7894E-01   9.9265E+00  0.000E+00  0.000E+00  0.000E+00  1.05417E+03  6.732E-01  1.519E+01  7.594E-02  1.224E+00
   1    8    7     5     3    9.9265E+00  1.9221E-01   9.7343E+00  0.000E+00  0.000E+00  0.000E+00  1.04992E+03  6.676E-01  1.497E+01  5.241E-02  1.223E+00
   1    8    6     5     4    9.7343E+00  1.3577E-01   9.5985E+00  0.000E+00  0.000E+00  0.000E+00  1.04691E+03  6.637E-01  1.482E+01  3.706E-02  1.221E+00
   1    9    6     6     1    9.5985E+00  2.2097E-01   9.3776E+00  0.000E+00  0.000E+00  0.000E+00  1.04341E+03  6.828E-01  1.200E+01  6.000E-02  1.228E+00
   1   10    7     6     2    9.3776E+00  2.2039E-01   9.1572E+00  0.000E+00  0.000E+00  0.000E+00  1.03885E+03  6.732E-01  1.200E+01  6.000E-02  1.224E+00
   1   11    7     6     3    9.1572E+00  2.1981E-01   8.9374E+00  0.000E+00  0.000E+00  0.000E+00  1.03430E+03  6.636E-01  1.200E+01  6.000E-02  1.221E+00
   1   12    7     6     4    8.9374E+00  2.1923E-01   8.7181E+00  0.000E+00  0.000E+00  0.000E+00  1.02974E+03  6.539E-01  1.200E+01  6.000E-02  1.218E+00
   1   13    7     6     5    8.7181E+00 -6.9268E-02   8.7874E+00  0.000E+00  0.000E+00  0.000E+00  1.02656E+03  6.505E-01  1.200E+01  2.400E-01 -9.621E-02
   1   14    9     7     1    1.5000E+02  1.3681E+00   1.4863E+02  0.000E+00  0.000E+00  0.000E+00  1.03987E+03  2.288E+00  5.529E+01  5.593E-01  8.154E-01
   1   13    8     7     2    1.4863E+02  1.9153E+00   1.4672E+02  0.000E+00  0.000E+00  0.000E+00  1.03478E+03  2.279E+00  5.526E+01  6.148E-01  1.038E+00
   1   13    7     7     3    1.4672E+02  1.5863E+00   1.4513E+02  0.000E+00  0.000E+00  0.000E+00  1.02969E+03  2.270E+00  5.521E+01  5.584E-01  9.469E-01
   1   13    6     8     1    1.5392E+02  9.3308E-01   1.5298E+02  0.000E+00  0.000E+00  0.000E+00  1.02472E+03  2.841E+00  4.119E+01  4.198E-01  7.409E-01
   1   13    5     8     2    1.5298E+02  1.9410E-01   1.5279E+02  0.000E+00  0.000E+00  0.000E+00  1.01846E+03  2.837E+00  4.114E+01  4.192E-01  1.543E-01
   1   13    4     8     3    1.5279E+02 -2.3998E+00   1.5519E+02  0.000E+00  0.000E+00  0.000E+00  1.01222E+03  2.845E+00  4.125E+01  4.203E+00 -1.903E-01
   1   13    3     8     4    1.5519E+02 -3.6607E+00   1.5885E+02  0.000E+00  0.000E+00  0.000E+00  1.00599E+03  2.866E+00  4.155E+01  4.234E+00 -2.882E-01
   1   13    2     8     5    1.5885E+02 -2.6588E+00   1.6151E+02  0.000E+00  0.000E+00  0.000E+00  9.99762E+02  2.887E+00  4.186E+01  4.266E+00 -2.078E-01
   1   13    1     8     6    1.6151E+02 -2.0601E+00   1.6357E+02  0.000E+00  0.000E+00  0.000E+00  9.94778E+02  2.903E+00  4.209E+01  2.574E+00 -2.668E-01
   1    8    6     9     1    2.3479E+01  0.0000E+00   2.3479E+01  0.000E+00  0.000E+00  0.000E+00  1.08253E+03  3.782E+00  4.000E+00  0.000E+00  2.261E+00
   1    8    5     9     2    2.3479E+01  0.0000E+00   2.3479E+01  0.000E+00  0.000E+00  0.000E+00  1.08203E+03  3.782E+00  4.000E+00  0.000E+00  2.261E+00



 UBDSV3 SAVING "           GW ET" ON UNIT  61 AT TIME STEP 15, STRESS PERIOD   8
 UBDSV3 SAVING "    UZF RECHARGE" ON UNIT  61 AT TIME STEP 15, STRESS PERIOD   8
 UBDSV3 SAVING " SURFACE LEAKAGE" ON UNIT  61 AT TIME STEP 15, STRESS PERIOD   8
 UBDSV3 SAVING "       HORT+DUNN" ON UNIT  61 AT TIME STEP 15, STRESS PERIOD   8
 UBDSV3 SAVING "  STORAGE CHANGE" ON UNIT  61 AT TIME STEP 15, STRESS PERIOD   8


UNSATURATED ZONE PACKAGE VOLUMETRIC BUDGET FOR  TIME STEP    15 STRESS PERIOD    8
  ------------------------------------------------------------------------------



     CUMULATIVE VOLUMES      L**3       RATES FOR THIS TIME STEP      L**3/T
     ------------------                 ------------------------

           IN:                                      IN:
           ---                                      ---
        INFILTRATION =   224314522.3844          INFILTRATION =         120.6424

          OUT:                                     OUT:
          ----                                     ----
              UZF ET =   181792066.3921                UZF ET =          60.8175
        UZF RECHARGE =       73224.0000          UZF RECHARGE =       0.0000E+00

            IN - OUT =    42449231.9922              IN - OUT =          59.8249

          STORAGE:                                 STORAGE:
          --------                                 --------
      STORAGE CHANGE =    42449217.7649        STORAGE CHANGE =          59.8249

 PERCENT DISCREPANCY IS DIFFERENCE BETWEEN IN-OUT MINUS CHANGE IN STORAGE
 DIVIDED BY THE AVERAGE OF IN AND OUT TIMES 100

 PERCENT DISCREPANCY =           0.00     PERCENT DISCREPANCY =          -0.00






 

            AG WELLS      PERIOD    8   STEP  15
 AG WELL      1   LAYER   1   ROW     6   COL     4   RATE    -16.0525    
 AG WELL      2   LAYER   1   ROW     6   COL     5   RATE    -16.0525    
 AG WELL      3   LAYER   1   ROW     7   COL     4   RATE    -16.0525    
 AG WELL      4   LAYER   1   ROW     7   COL     5   RATE    -16.0525    
 AG WELL      5   LAYER   1   ROW     8   COL     4   RATE    -16.0525    
 AG WELL      6   LAYER   1   ROW     8   COL     5   RATE    -16.0525    
 
 

   DIVERSION SEGMENTS     PERIOD    8   STEP  15
 SEGMENT      9   RATE     23.4793    
 
 

        SW IRRIGATION     PERIOD    8   STEP  15
 SEGMENT      9   ROW     6   COL     4   RATE     3.91329    
 SEGMENT      9   ROW     6   COL     5   RATE     3.91329    
 SEGMENT      9   ROW     7   COL     4   RATE     3.91329    
 SEGMENT      9   ROW     7   COL     5   RATE     3.91329    
 SEGMENT      9   ROW     8   COL     4   RATE     3.91329    
 SEGMENT      9   ROW     8   COL     5   RATE     3.91329    
 
 

        GW IRRIGATION     PERIOD    8   STEP  15
 AG WELL      1   ROW     6   COL     4   RATE     16.0525    
 AG WELL      2   ROW     6   COL     5   RATE     16.0525    
 AG WELL      3   ROW     7   COL     4   RATE     16.0525    
 AG WELL      4   ROW     7   COL     5   RATE     16.0525    
 AG WELL      5   ROW     8   COL     4   RATE     16.0525    
 AG WELL      6   ROW     8   COL     5   RATE     16.0525    
 
1
  VOLUMETRIC BUDGET FOR AGRICULTURAL FIELDS AT  END OF TIME STEP   15, STRESS PERIOD   8
  ------------------------------------------------------------------------------

     CUMULATIVE VOLUMES      L**3       RATES FOR THIS TIME STEP      L**3/T
     ------------------                 ------------------------

           IN:                                      IN:
           ---                                      ---
               AG WELLS  =   115780928.0000                 AG WELLS  =          96.3152
      DIVERSION SEGMENTS =    93970456.0000        DIVERSION SEGMENTS =          23.4793
           GW IRRIGATION =           0.0000             GW IRRIGATION =           0.0000
           SW IRRIGATION =           0.0000             SW IRRIGATION =           0.0000
        SYSTEM LOSSES GW =           0.0000          SYSTEM LOSSES GW =           0.0000
        SYSTEM LOSSES SW =           0.0000          SYSTEM LOSSES SW =           0.0000

                TOTAL IN =   209751392.0000                  TOTAL IN =         119.7944

          OUT:                                     OUT:
          ----                                     ----
               AG WELLS  =           0.0000                 AG WELLS  =           0.0000
      DIVERSION SEGMENTS =           0.0000        DIVERSION SEGMENTS =           0.0000
           GW IRRIGATION =   115780928.0000             GW IRRIGATION =          96.3152
           SW IRRIGATION =    93972344.0000             SW IRRIGATION =          23.4797
        SYSTEM LOSSES GW =           0.0000          SYSTEM LOSSES GW =           0.0000
        SYSTEM LOSSES SW =           0.0000          SYSTEM LOSSES SW =           0.0000

               TOTAL OUT =   209753280.0000                 TOTAL OUT =         119.7949

                IN - OUT =       -1888.0000                  IN - OUT =      -4.7302E-04

     PERCENT DISCREPANCY =          -0.00         PERCENT DISCREPANCY =          -0.00



1
  VOLUMETRIC BUDGET FOR ENTIRE MODEL AT END OF TIME STEP   15, STRESS PERIOD   8
  ------------------------------------------------------------------------------

     CUMULATIVE VOLUMES      L**3       RATES FOR THIS TIME STEP      L**3/T
     ------------------                 ------------------------

           IN:                                      IN:
           ---                                      ---
             STORAGE     =   127567168.0000               STORAGE     =          96.0662
       CONSTANT HEAD     =           0.0000         CONSTANT HEAD     =           0.0000
     HEAD DEP BOUNDS     =     4946129.5000       HEAD DEP BOUNDS     =           0.2880
      STREAM LEAKAGE     =   204019744.0000        STREAM LEAKAGE     =          11.9242
        UZF RECHARGE     =       73223.9531          UZF RECHARGE     =           0.0000
               GW ET     =           0.0000                 GW ET     =           0.0000
     SURFACE LEAKAGE     =           0.0000       SURFACE LEAKAGE     =           0.0000
           AG WELLS      =           0.0000             AG WELLS      =           0.0000

                TOTAL IN =   336606272.0000                  TOTAL IN =         108.2784

          OUT:                                     OUT:
          ----                                     ----
             STORAGE     =    38960008.0000               STORAGE     =           0.8266
       CONSTANT HEAD     =           0.0000         CONSTANT HEAD     =           0.0000
     HEAD DEP BOUNDS     =     4959545.5000       HEAD DEP BOUNDS     =           0.2880
      STREAM LEAKAGE     =   176910720.0000        STREAM LEAKAGE     =          10.8486
        UZF RECHARGE     =           0.0000          UZF RECHARGE     =           0.0000
               GW ET     =           0.0000                 GW ET     =           0.0000
     SURFACE LEAKAGE     =           0.0000       SURFACE LEAKAGE     =           0.0000
           AG WELLS      =   115780928.0000             AG WELLS      =          96.3152

               TOTAL OUT =   336611200.0000                 TOTAL OUT =         108.2783

                IN - OUT =       -4928.0000                  IN - OUT =       6.1035E-05

     PERCENT DISCREPANCY =          -0.00         PERCENT DISCREPANCY =           0.00






         TIME SUMMARY AT END OF TIME STEP   15 IN STRESS PERIOD    8
                    SECONDS     MINUTES      HOURS       DAYS        YEARS
                    -----------------------------------------------------------
   TIME STEP LENGTH  87667.      1461.1      24.352      1.0147     2.77799E-03
 STRESS PERIOD TIME 1.31500E+06  21917.      365.28      15.220     4.16698E-02
         TOTAL TIME 1.71814E+07 2.86357E+05  4772.6      198.86     0.54445    
1
 
 SOLVING FOR HEAD 
                                                   Max.-Head-Change                         Max.-Flux-Residual
  Residual-Control   Outer-Iter.   Inner-Iter.     Column Row Layer    Maximum-Head-Change  Column Row Layer    Maximum-Flux-Residual          L2-NORM 
          0                 1           2             5    8     1       0.7181868761E-01       5    8    1         0.3934393709E+01      0.8913594319E+01
          0                 2           2             5    6     1      -0.1194579131E+00       5    8    1        -0.6583109568E+01      0.1592769617E+02
          0                 3           2             5    6     1       0.8134584623E-02       5    8    1         0.4608142176E+00      0.1116134225E+01
          0                 4           2             5    6     1      -0.3236830001E-03       5    8    1        -0.1884734469E-01      0.4573993165E-01
          0                 5           1             5    6     1       0.3991144720E-05       5    8    1         0.2388539128E-03      0.5969672379E-03

    ------------------------------------------------
       NWT REQUIRED            5 OUTER ITERATIONS 
       AND A TOTAL OF          9 INNER ITERATIONS.
    ------------------------------------------------

 NO OUTPUT CONTROL FOR STRESS PERIOD    8   TIME STEP   16
 
 SOLVING FOR HEAD 
                                                   Max.-Head-Change                         Max.-Flux-Residual
  Residual-Control   Outer-Iter.   Inner-Iter.     Column Row Layer    Maximum-Head-Change  Column Row Layer    Maximum-Flux-Residual          L2-NORM 
          0                 1           2             5    8     1       0.7153299278E-01       5    8    1         0.3916643718E+01      0.8930708062E+01
          0                 2           2             4    7     1      -0.3022573678E+00       5    8    1        -0.1644418528E+02      0.4006823828E+02
          0                 3           2             4    7     1       0.2058215379E-01       5    8    1         0.1150988316E+01      0.2805047067E+01
          0                 4           2             4    7     1      -0.8189853132E-03       5    8    1        -0.4706776707E-01      0.1147506833E+00
          0                 5           1             4    7     1       0.1009844056E-04       5    8    1         0.5959613402E-03      0.1460948989E-02

    ------------------------------------------------
       NWT REQUIRED            5 OUTER ITERATIONS 
       AND A TOTAL OF          9 INNER ITERATIONS.
    ------------------------------------------------

 NO OUTPUT CONTROL FOR STRESS PERIOD    8   TIME STEP   17
 
 SOLVING FOR HEAD 
                                                   Max.-Head-Change                         Max.-Flux-Residual
  Residual-Control   Outer-Iter.   Inner-Iter.     Column Row Layer    Maximum-Head-Change  Column Row Layer    Maximum-Flux-Residual          L2-NORM 
          0                 1           2             5    8     1       0.7662521171E-01       5    8    1         0.4195792277E+01      0.9556124833E+01
          0                 2           2             5    6     1      -0.1199238447E+00       5    8    1        -0.6609248634E+01      0.1598530039E+02
          0                 3           2             5    6     1       0.8166313285E-02       5    8    1         0.4626439791E+00      0.1120148143E+01
          0                 4           2             5    6     1      -0.3249455110E-03       5    8    1        -0.1892218193E-01      0.4590282226E-01
          0                 5           1             5    6     1       0.4006711646E-05       5    8    1         0.2398023403E-03      0.6034973355E-03

    ------------------------------------------------
       NWT REQUIRED            5 OUTER ITERATIONS 
       AND A TOTAL OF          9 INNER ITERATIONS.
    ------------------------------------------------

 NO OUTPUT CONTROL FOR STRESS PERIOD    8   TIME STEP   18
 
 SOLVING FOR HEAD 
                                                   Max.-Head-Change                         Max.-Flux-Residual
  Residual-Control   Outer-Iter.   Inner-Iter.     Column Row Layer    Maximum-Head-Change  Column Row Layer    Maximum-Flux-Residual          L2-NORM 
          0                 1           2             5    8     1       0.7612939623E-01       5    8    1         0.4166404952E+01      0.9550750140E+01
          0                 2           2             4    7     1      -0.3025970831E+00       5    8    1        -0.1646916065E+02      0.4012359046E+02
          0                 3           2             4    7     1       0.2060528873E-01       5    8    1         0.1152744564E+01      0.2808933031E+01
          0                 4           2             4    7     1      -0.8199058663E-03       5    8    1        -0.4714036458E-01      0.1149103860E+00
          0                 5           1             4    7     1       0.1010979114E-04       5    8    1         0.5969335016E-03      0.1462856654E-02

    ------------------------------------------------
       NWT REQUIRED            5 OUTER ITERATIONS 
       AND A TOTAL OF          9 INNER ITERATIONS.
    ------------------------------------------------

 NO OUTPUT CONTROL FOR STRESS PERIOD    8   TIME STEP   19
 
 SOLVING FOR HEAD 
                                                   Max.-Head-Change                         Max.-Flux-Residual
  Residual-Control   Outer-Iter.   Inner-Iter.     Column Row Layer    Maximum-Head-Change  Column Row Layer    Maximum-Flux-Residual          L2-NORM 
          0                 1           2             5    8     1       0.8102430878E-01       5    8    1         0.4434632048E+01      0.1015339760E+02
          0                 2           2             5    6     1      -0.1203523339E+00       5    8    1        -0.6633131843E+01      0.1603967067E+02
          0                 3           2             5    6     1       0.8195492268E-02       5    8    1         0.4643158329E+00      0.1123936831E+01
          0                 4           2             5    6     1      -0.3261065679E-03       5    8    1        -0.1899056069E-01      0.4605642837E-01
          0                 5           1             5    6     1       0.4021028150E-05       5    8    1         0.2406689146E-03      0.6004785457E-03

    ------------------------------------------------
       NWT REQUIRED            5 OUTER ITERATIONS 
       AND A TOTAL OF          9 INNER ITERATIONS.
    ------------------------------------------------

 NO OUTPUT CONTROL FOR STRESS PERIOD    8   TIME STEP   20
 
 SOLVING FOR HEAD 
                                                   Max.-Head-Change                         Max.-Flux-Residual
  Residual-Control   Outer-Iter.   Inner-Iter.     Column Row Layer    Maximum-Head-Change  Column Row Layer    Maximum-Flux-Residual          L2-NORM 
          0                 1           2             5    8     1       0.8034326016E-01       5    8    1         0.4395000928E+01      0.1012798869E+02
          0                 2           2             4    7     1      -0.3029366755E+00       5    8    1        -0.1649201951E+02      0.4017589382E+02
          0                 3           2             4    7     1       0.2062841473E-01       5    8    1         0.1154351661E+01      0.2812604323E+01
          0                 4           2             4    7     1      -0.8208260665E-03       5    8    1        -0.4720676469E-01      0.1150612581E+00
          0                 5           1             4    7     1       0.1012113779E-04       5    8    1         0.5978205022E-03      0.1464656276E-02

    ------------------------------------------------
       NWT REQUIRED            5 OUTER ITERATIONS 
       AND A TOTAL OF          9 INNER ITERATIONS.
    ------------------------------------------------

 NO OUTPUT CONTROL FOR STRESS PERIOD    8   TIME STEP   21
 
 SOLVING FOR HEAD 
                                                   Max.-Head-Change                         Max.-Flux-Residual
  Residual-Control   Outer-Iter.   Inner-Iter.     Column Row Layer    Maximum-Head-Change  Column Row Layer    Maximum-Flux-Residual          L2-NORM 
          0                 1           2             5    8     1       0.8506375522E-01       5    8    1         0.4653587835E+01      0.1071017643E+02
          0                 2           2             5    6     1      -0.1207474594E+00       5    8    1        -0.6655026679E+01      0.1609106057E+02
          0                 3           2             5    6     1       0.8222399315E-02       5    8    1         0.4658485023E+00      0.1127517892E+01
          0                 4           2             5    6     1      -0.3271772221E-03       5    8    1        -0.1905324681E-01      0.4620171414E-01
          0                 5           1             5    6     1       0.4034229659E-05       5    8    1         0.2414633211E-03      0.6021774331E-03

    ------------------------------------------------
       NWT REQUIRED            5 OUTER ITERATIONS 
       AND A TOTAL OF          9 INNER ITERATIONS.
    ------------------------------------------------

 NO OUTPUT CONTROL FOR STRESS PERIOD    8   TIME STEP   22
 
 SOLVING FOR HEAD 
                                                   Max.-Head-Change                         Max.-Flux-Residual
  Residual-Control   Outer-Iter.   Inner-Iter.     Column Row Layer    Maximum-Head-Change  Column Row Layer    Maximum-Flux-Residual          L2-NORM 
          0                 1           2             5    8     1       0.8421873242E-01       5    8    1         0.4604901106E+01      0.1066699786E+02
          0                 2           2             4    7     1      -0.3032745944E+00       5    8    1        -0.1651300882E+02      0.4022538465E+02
          0                 3           2             4    7     1       0.2065142628E-01       5    8    1         0.1155827025E+01      0.2816078034E+01
          0                 4           2             4    7     1      -0.8217417149E-03       5    8    1        -0.4726769268E-01      0.1152041404E+00
          0                 5           1             4    7     1       0.1013242810E-04       5    8    1         0.5986324377E-03      0.1466434880E-02

    ------------------------------------------------
       NWT REQUIRED            5 OUTER ITERATIONS 
       AND A TOTAL OF          9 INNER ITERATIONS.
    ------------------------------------------------

 NO OUTPUT CONTROL FOR STRESS PERIOD    8   TIME STEP   23
 
 SOLVING FOR HEAD 
                                                   Max.-Head-Change                         Max.-Flux-Residual
  Residual-Control   Outer-Iter.   Inner-Iter.     Column Row Layer    Maximum-Head-Change  Column Row Layer    Maximum-Flux-Residual          L2-NORM 
          0                 1           2             5    8     1       0.8878452225E-01       5    8    1         0.4854948881E+01      0.1123045487E+02
          0                 2           2             5    6     1      -0.1211128104E+00       5    8    1        -0.6675162069E+01      0.1613969468E+02
          0                 3           2             5    6     1       0.8247278828E-02       5    8    1         0.4672580114E+00      0.1130906964E+01
          0                 4           2             5    6     1      -0.3281671992E-03       5    8    1        -0.1911089569E-01      0.4633921718E-01
          0                 5           1             5    6     1       0.4046436476E-05       5    8    1         0.2421939421E-03      0.6037540330E-03

    ------------------------------------------------
       NWT REQUIRED            5 OUTER ITERATIONS 
       AND A TOTAL OF          9 INNER ITERATIONS.
    ------------------------------------------------

 NO OUTPUT CONTROL FOR STRESS PERIOD    8   TIME STEP   24
 
 SOLVING FOR HEAD 
                                                   Max.-Head-Change                         Max.-Flux-Residual
  Residual-Control   Outer-Iter.   Inner-Iter.     Column Row Layer    Maximum-Head-Change  Column Row Layer    Maximum-Flux-Residual          L2-NORM 
          0                 1           2             5    8     1       0.8779399245E-01       5    8    1         0.4798237715E+01      0.1117119848E+02
          0                 2           2             4    7     1      -0.3036095921E+00       5    8    1        -0.1653234180E+02      0.4027227531E+02
          0                 3           2             4    7     1       0.2067423846E-01       5    8    1         0.1157185689E+01      0.2819368897E+01
          0                 4           2             4    7     1      -0.8226494328E-03       5    8    1        -0.4732377397E-01      0.1153395412E+00
          0                 5           1             4    7     1       0.1014362085E-04       5    8    1         0.5993779566E-03      0.1468070093E-02

    ------------------------------------------------
       NWT REQUIRED            5 OUTER ITERATIONS 
       AND A TOTAL OF          9 INNER ITERATIONS.
    ------------------------------------------------

 NO OUTPUT CONTROL FOR STRESS PERIOD    8   TIME STEP   25
 
 SOLVING FOR HEAD 
                                                   Max.-Head-Change                         Max.-Flux-Residual
  Residual-Control   Outer-Iter.   Inner-Iter.     Column Row Layer    Maximum-Head-Change  Column Row Layer    Maximum-Flux-Residual          L2-NORM 
          0                 1           2             5    8     1       0.9222250177E-01       5    8    1         0.5040718306E+01      0.1171760155E+02
          0                 2           2             5    6     1      -0.1214515153E+00       5    8    1        -0.6693738326E+01      0.1618577964E+02
          0                 3           2             5    6     1       0.8270343833E-02       5    8    1         0.4685583816E+00      0.1134118375E+01
          0                 4           2             5    6     1      -0.3290849751E-03       5    8    1        -0.1916408076E-01      0.4646938383E-01
          0                 5           1             5    6     1       0.4057753222E-05       5    8    1         0.2428679607E-03      0.6051112715E-03

    ------------------------------------------------
       NWT REQUIRED            5 OUTER ITERATIONS 
       AND A TOTAL OF          9 INNER ITERATIONS.
    ------------------------------------------------

 NO OUTPUT CONTROL FOR STRESS PERIOD    8   TIME STEP   26
 
 SOLVING FOR HEAD 
                                                   Max.-Head-Change                         Max.-Flux-Residual
  Residual-Control   Outer-Iter.   Inner-Iter.     Column Row Layer    Maximum-Head-Change  Column Row Layer    Maximum-Flux-Residual          L2-NORM 
          0                 1           2             5    8     1       0.9110255146E-01       5    8    1         0.4976879629E+01      0.1164391005E+02
          0                 2           2             4    7     1      -0.3039405577E+00       5    8    1        -0.1655020534E+02      0.4031676001E+02
          0                 3           2             4    7     1       0.2069677571E-01       5    8    1         0.1158440827E+01      0.2822489130E+01
          0                 4           2             4    7     1      -0.8235462121E-03       5    8    1        -0.4737555651E-01      0.1154676678E+00
          0                 5           1             4    7     1       0.1015467840E-04       5    8    1         0.6000646149E-03      0.1469693667E-02

    ------------------------------------------------
       NWT REQUIRED            5 OUTER ITERATIONS 
       AND A TOTAL OF          9 INNER ITERATIONS.
    ------------------------------------------------

 NO OUTPUT CONTROL FOR STRESS PERIOD    8   TIME STEP   27
 
 SOLVING FOR HEAD 
                                                   Max.-Head-Change                         Max.-Flux-Residual
  Residual-Control   Outer-Iter.   Inner-Iter.     Column Row Layer    Maximum-Head-Change  Column Row Layer    Maximum-Flux-Residual          L2-NORM 
          0                 1           2             5    8     1       0.9540858688E-01       5    8    1         0.5212618092E+01      0.1217473562E+02
          0                 2           2             5    6     1      -0.1217663169E+00       5    8    1        -0.6710927648E+01      0.1622950477E+02
          0                 3           2             5    6     1       0.8291781100E-02       5    8    1         0.4697616664E+00      0.1137165529E+01
          0                 4           2             5    6     1      -0.3299379816E-03       5    8    1        -0.1921329503E-01      0.4659297629E-01
          0                 5           1             5    6     1       0.4068271080E-05       5    8    1         0.2434916366E-03      0.6064679552E-03

    ------------------------------------------------
       NWT REQUIRED            5 OUTER ITERATIONS 
       AND A TOTAL OF          9 INNER ITERATIONS.
    ------------------------------------------------

 NO OUTPUT CONTROL FOR STRESS PERIOD    8   TIME STEP   28
 
 SOLVING FOR HEAD 
                                                   Max.-Head-Change                         Max.-Flux-Residual
  Residual-Control   Outer-Iter.   Inner-Iter.     Column Row Layer    Maximum-Head-Change  Column Row Layer    Maximum-Flux-Residual          L2-NORM 
          0                 1           2             5    8     1       0.9417330521E-01       5    8    1         0.5142436524E+01      0.1208804639E+02
          0                 2           2             4    7     1      -0.3042666407E+00       5    8    1        -0.1656676040E+02      0.4035901573E+02
          0                 3           2             4    7     1       0.2071898017E-01       5    8    1         0.1159603788E+01      0.2825451087E+01
          0                 4           2             4    7     1      -0.8244297509E-03       5    8    1        -0.4742351231E-01      0.1155892171E+00
          0                 5           1             4    7     1       0.1016557285E-04       5    8    1         0.6006989390E-03      0.1471159997E-02

    ------------------------------------------------
       NWT REQUIRED            5 OUTER ITERATIONS 
       AND A TOTAL OF          9 INNER ITERATIONS.
    ------------------------------------------------

 NO OUTPUT CONTROL FOR STRESS PERIOD    8   TIME STEP   29
 
 SOLVING FOR HEAD 
                                                   Max.-Head-Change                         Max.-Flux-Residual
  Residual-Control   Outer-Iter.   Inner-Iter.     Column Row Layer    Maximum-Head-Change  Column Row Layer    Maximum-Flux-Residual          L2-NORM 
          0                 1           2             5    8     1       0.9836997017E-01       5    8    1         0.5372162214E+01      0.1260460159E+02
          0                 2           2             5    6     1      -0.1220596172E+00       5    8    1        -0.6726881433E+01      0.1627104101E+02
          0                 3           2             5    6     1       0.8311754198E-02       5    8    1         0.4708784633E+00      0.1140064635E+01
          0                 4           2             5    6     1      -0.3307327277E-03       5    8    1        -0.1925897193E-01      0.4671128766E-01
          0                 5           1             5    6     1       0.4078070585E-05       5    8    1         0.2440705223E-03      0.6079664106E-03

    ------------------------------------------------
       NWT REQUIRED            5 OUTER ITERATIONS 
       AND A TOTAL OF          9 INNER ITERATIONS.
    ------------------------------------------------

 NO OUTPUT CONTROL FOR STRESS PERIOD    8   TIME STEP   30



 STREAM LISTING     PERIOD      8   STEP       30

 LAYER ROW COL. STREAM  RCH.  FLOW INTO     FLOW TO   FLOW OUT OF   OVRLND.     DIRECT     STREAM       STREAM     STREAM     STREAM   STREAMBED  STREAMBED
                SEG.NO.  NO.  STRM. RCH.    AQUIFER    STRM. RCH.    RUNOFF     PRECIP       ET          HEAD       DEPTH      WIDTH   CONDCTNC.   GRADIENT

   1    1    1     1     1    2.8125E+01  2.5915E-01   2.7866E+01  0.000E+00  0.000E+00  0.000E+00  1.09427E+03  1.223E+00  1.364E+01  6.137E-02  1.408E+00
   1    2    2     1     2    2.7866E+01  4.0087E-01   2.7465E+01  0.000E+00  0.000E+00  0.000E+00  1.08928E+03  1.218E+00  1.358E+01  9.503E-02  1.406E+00
   1    3    3     1     3    2.7465E+01  3.4142E-01   2.7123E+01  0.000E+00  0.000E+00  0.000E+00  1.08363E+03  1.213E+00  1.351E+01  8.103E-02  1.404E+00
   1    3    4     1     4    2.7123E+01  3.1403E-01   2.6809E+01  0.000E+00  0.000E+00  0.000E+00  1.07862E+03  1.209E+00  1.344E+01  7.461E-02  1.403E+00
   1    4    5     2     1    2.4809E+01  3.2739E-01   2.4482E+01  0.000E+00  0.000E+00  0.000E+00  1.07313E+03  1.197E+00  1.200E+01  7.800E-02  1.399E+00
   1    5    6     2     2    2.4482E+01  2.5133E-01   2.4231E+01  0.000E+00  0.000E+00  0.000E+00  1.06770E+03  1.189E+00  1.200E+01  6.000E-02  1.396E+00
   1    6    6     2     3    2.4231E+01  2.5089E-01   2.3980E+01  0.000E+00  0.000E+00  0.000E+00  1.06297E+03  1.181E+00  1.200E+01  6.000E-02  1.394E+00
   1    7    6     2     4    2.3980E+01  2.5044E-01   2.3729E+01  0.000E+00  0.000E+00  0.000E+00  1.05825E+03  1.174E+00  1.200E+01  6.000E-02  1.391E+00
   1    8    6     2     5    2.3729E+01  2.5000E-01   2.3479E+01  0.000E+00  0.000E+00  0.000E+00  1.05353E+03  1.167E+00  1.200E+01  6.000E-02  1.389E+00
   1    3    5     3     1    2.0000E+00  2.8252E-01   1.7175E+00  0.000E+00  0.000E+00  0.000E+00  1.07555E+03  1.909E+00  9.636E+00  7.227E-02  1.955E+00
   1    3    6     3     2    1.7175E+00  2.4905E-01   1.4684E+00  0.000E+00  0.000E+00  0.000E+00  1.07264E+03  1.727E+00  8.909E+00  6.682E-02  1.864E+00
   1    3    7     3     3    1.4684E+00  1.9718E-01   1.2712E+00  0.000E+00  0.000E+00  0.000E+00  1.06987E+03  1.555E+00  8.218E+00  5.547E-02  1.777E+00
   1    4    8     3     4    1.2712E+00  2.2567E-01   1.0456E+00  0.000E+00  0.000E+00  0.000E+00  1.06682E+03  1.364E+00  7.455E+00  6.709E-02  1.682E+00
   1    5    8     3     5    1.0456E+00  1.5790E-01   8.8768E-01  0.000E+00  0.000E+00  0.000E+00  1.06362E+03  1.164E+00  6.655E+00  4.991E-02  1.582E+00
   1    6    8     3     6    8.8768E-01  5.5980E-02   8.3170E-01  0.000E+00  0.000E+00  0.000E+00  1.06158E+03  1.036E+00  6.145E+00  1.844E-02  1.518E+00
   1    5   10     4     1    1.0000E+01  9.0919E-02   9.9091E+00  0.000E+00  0.000E+00  0.000E+00  1.07836E+03  6.368E-01  1.000E+01  2.500E-02  1.212E+00
   1    5    9     4     2    9.9091E+00  1.8158E-01   9.7275E+00  0.000E+00  0.000E+00  0.000E+00  1.07154E+03  6.315E-01  1.000E+01  5.000E-02  1.211E+00
   1    6    8     4     3    9.7275E+00  1.2689E-01   9.6006E+00  0.000E+00  0.000E+00  0.000E+00  1.06381E+03  6.256E-01  1.000E+01  3.500E-02  1.209E+00
   1    6    8     5     1    1.0432E+01  2.2686E-01   1.0205E+01  0.000E+00  0.000E+00  0.000E+00  1.05868E+03  6.790E-01  1.542E+01  6.166E-02  1.226E+00
   1    7    7     5     2    1.0205E+01  2.7894E-01   9.9265E+00  0.000E+00  0.000E+00  0.000E+00  1.05417E+03  6.732E-01  1.519E+01  7.594E-02  1.224E+00
   1    8    7     5     3    9.9265E+00  1.9221E-01   9.7343E+00  0.000E+00  0.000E+00  0.000E+00  1.04992E+03  6.676E-01  1.497E+01  5.241E-02  1.223E+00
   1    8    6     5     4    9.7343E+00  1.3577E-01   9.5985E+00  0.000E+00  0.000E+00  0.000E+00  1.04691E+03  6.637E-01  1.482E+01  3.706E-02  1.221E+00
   1    9    6     6     1    9.5985E+00  2.2097E-01   9.3776E+00  0.000E+00  0.000E+00  0.000E+00  1.04341E+03  6.828E-01  1.200E+01  6.000E-02  1.228E+00
   1   10    7     6     2    9.3776E+00  2.2039E-01   9.1572E+00  0.000E+00  0.000E+00  0.000E+00  1.03885E+03  6.732E-01  1.200E+01  6.000E-02  1.224E+00
   1   11    7     6     3    9.1572E+00  2.1981E-01   8.9374E+00  0.000E+00  0.000E+00  0.000E+00  1.03430E+03  6.636E-01  1.200E+01  6.000E-02  1.221E+00
   1   12    7     6     4    8.9374E+00  2.1923E-01   8.7181E+00  0.000E+00  0.000E+00  0.000E+00  1.02974E+03  6.539E-01  1.200E+01  6.000E-02  1.218E+00
   1   13    7     6     5    8.7181E+00 -6.7478E-02   8.7856E+00  0.000E+00  0.000E+00  0.000E+00  1.02656E+03  6.505E-01  1.200E+01  2.400E-01 -9.372E-02
   1   14    9     7     1    1.5000E+02  1.3683E+00   1.4863E+02  0.000E+00  0.000E+00  0.000E+00  1.03987E+03  2.288E+00  5.529E+01  5.593E-01  8.155E-01
   1   13    8     7     2    1.4863E+02  1.9160E+00   1.4672E+02  0.000E+00  0.000E+00  0.000E+00  1.03478E+03  2.279E+00  5.526E+01  6.148E-01  1.039E+00
   1   13    7     7     3    1.4672E+02  1.5904E+00   1.4513E+02  0.000E+00  0.000E+00  0.000E+00  1.02969E+03  2.270E+00  5.521E+01  5.584E-01  9.494E-01
   1   13    6     8     1    1.5391E+02  9.3767E-01   1.5297E+02  0.000E+00  0.000E+00  0.000E+00  1.02472E+03  2.841E+00  4.119E+01  4.198E-01  7.446E-01
   1   13    5     8     2    1.5297E+02  1.9916E-01   1.5277E+02  0.000E+00  0.000E+00  0.000E+00  1.01846E+03  2.837E+00  4.114E+01  4.192E-01  1.584E-01
   1   13    4     8     3    1.5277E+02 -2.3486E+00   1.5512E+02  0.000E+00  0.000E+00  0.000E+00  1.01222E+03  2.844E+00  4.124E+01  4.203E+00 -1.863E-01
   1   13    3     8     4    1.5512E+02 -3.6071E+00   1.5873E+02  0.000E+00  0.000E+00  0.000E+00  1.00599E+03  2.865E+00  4.154E+01  4.233E+00 -2.840E-01
   1   13    2     8     5    1.5873E+02 -2.5950E+00   1.6132E+02  0.000E+00  0.000E+00  0.000E+00  9.99761E+02  2.886E+00  4.185E+01  4.264E+00 -2.028E-01
   1   13    1     8     6    1.6132E+02 -2.0156E+00   1.6334E+02  0.000E+00  0.000E+00  0.000E+00  9.94777E+02  2.902E+00  4.207E+01  2.572E+00 -2.612E-01
   1    8    6     9     1    2.3479E+01  0.0000E+00   2.3479E+01  0.000E+00  0.000E+00  0.000E+00  1.08253E+03  3.782E+00  4.000E+00  0.000E+00  2.261E+00
   1    8    5     9     2    2.3479E+01  0.0000E+00   2.3479E+01  0.000E+00  0.000E+00  0.000E+00  1.08203E+03  3.782E+00  4.000E+00  0.000E+00  2.261E+00





UNSATURATED ZONE PACKAGE VOLUMETRIC BUDGET FOR  TIME STEP    30 STRESS PERIOD    8
  ------------------------------------------------------------------------------



     CUMULATIVE VOLUMES      L**3       RATES FOR THIS TIME STEP      L**3/T
     ------------------                 ------------------------

           IN:                                      IN:
           ---                                      ---
        INFILTRATION =   341456408.8226          INFILTRATION =          61.4653

          OUT:                                     OUT:
          ----                                     ----
              UZF ET =   261767075.0803                UZF ET =          60.8175
        UZF RECHARGE =       73224.0000          UZF RECHARGE =       0.0000E+00

            IN - OUT =    79616109.7422              IN - OUT =           0.6478

          STORAGE:                                 STORAGE:
          --------                                 --------
      STORAGE CHANGE =    79616094.0070        STORAGE CHANGE =           0.6478

 PERCENT DISCREPANCY IS DIFFERENCE BETWEEN IN-OUT MINUS CHANGE IN STORAGE
 DIVIDED BY THE AVERAGE OF IN AND OUT TIMES 100

 PERCENT DISCREPANCY =           0.00     PERCENT DISCREPANCY =           0.00






1
  VOLUMETRIC BUDGET FOR AGRICULTURAL FIELDS AT  END OF TIME STEP   30, STRESS PERIOD   8
  ------------------------------------------------------------------------------

     CUMULATIVE VOLUMES      L**3       RATES FOR THIS TIME STEP      L**3/T
     ------------------                 ------------------------

           IN:                                      IN:
           ---                                      ---
               AG WELLS  =   200932528.0000                 AG WELLS  =          37.1381
      DIVERSION SEGMENTS =   124845736.0000        DIVERSION SEGMENTS =          23.4793
           GW IRRIGATION =           0.0000             GW IRRIGATION =           0.0000
           SW IRRIGATION =           0.0000             SW IRRIGATION =           0.0000
        SYSTEM LOSSES GW =           0.0000          SYSTEM LOSSES GW =           0.0000
        SYSTEM LOSSES SW =           0.0000          SYSTEM LOSSES SW =           0.0000

                TOTAL IN =   325778272.0000                  TOTAL IN =          60.6173

          OUT:                                     OUT:
          ----                                     ----
               AG WELLS  =           0.0000                 AG WELLS  =           0.0000
      DIVERSION SEGMENTS =           0.0000        DIVERSION SEGMENTS =           0.0000
           GW IRRIGATION =   200932528.0000             GW IRRIGATION =          37.1381
           SW IRRIGATION =   124848224.0000             SW IRRIGATION =          23.4797
        SYSTEM LOSSES GW =           0.0000          SYSTEM LOSSES GW =           0.0000
        SYSTEM LOSSES SW =           0.0000          SYSTEM LOSSES SW =           0.0000

               TOTAL OUT =   325780736.0000                 TOTAL OUT =          60.6178

                IN - OUT =       -2464.0000                  IN - OUT =      -4.6921E-04

     PERCENT DISCREPANCY =          -0.00         PERCENT DISCREPANCY =          -0.00



1
  VOLUMETRIC BUDGET FOR ENTIRE MODEL AT END OF TIME STEP   30, STRESS PERIOD   8
  ------------------------------------------------------------------------------

     CUMULATIVE VOLUMES      L**3       RATES FOR THIS TIME STEP      L**3/T
     ------------------                 ------------------------

           IN:                                      IN:
           ---                                      ---
             STORAGE     =   212094384.0000               STORAGE     =          36.4977
       CONSTANT HEAD     =           0.0000         CONSTANT HEAD     =           0.0000
     HEAD DEP BOUNDS     =     5324801.0000       HEAD DEP BOUNDS     =           0.2880
      STREAM LEAKAGE     =   219710800.0000        STREAM LEAKAGE     =          11.9389
        UZF RECHARGE     =       73223.9531          UZF RECHARGE     =           0.0000
               GW ET     =           0.0000                 GW ET     =           0.0000
     SURFACE LEAKAGE     =           0.0000       SURFACE LEAKAGE     =           0.0000
           AG WELLS      =           0.0000             AG WELLS      =           0.0000

                TOTAL IN =   437203200.0000                  TOTAL IN =          48.7245

          OUT:                                     OUT:
          ----                                     ----
             STORAGE     =    39934848.0000               STORAGE     =           0.6653
       CONSTANT HEAD     =           0.0000         CONSTANT HEAD     =           0.0000
     HEAD DEP BOUNDS     =     5337699.0000       HEAD DEP BOUNDS     =           0.2873
      STREAM LEAKAGE     =   191003024.0000        STREAM LEAKAGE     =          10.6338
        UZF RECHARGE     =           0.0000          UZF RECHARGE     =           0.0000
               GW ET     =           0.0000                 GW ET     =           0.0000
     SURFACE LEAKAGE     =           0.0000       SURFACE LEAKAGE     =           0.0000
           AG WELLS      =   200932528.0000             AG WELLS      =          37.1381

               TOTAL OUT =   437208096.0000                 TOTAL OUT =          48.7245

                IN - OUT =       -4896.0000                  IN - OUT =       3.0518E-05

     PERCENT DISCREPANCY =          -0.00         PERCENT DISCREPANCY =           0.00






         TIME SUMMARY AT END OF TIME STEP   30 IN STRESS PERIOD    8
                    SECONDS     MINUTES      HOURS       DAYS        YEARS
                    -----------------------------------------------------------
   TIME STEP LENGTH  87667.      1461.1      24.352      1.0147     2.77799E-03
 STRESS PERIOD TIME 2.63000E+06  43833.      730.56      30.440     8.33397E-02
         TOTAL TIME 1.84964E+07 3.08274E+05  5137.9      214.08     0.58612    
1
1
                            STRESS PERIOD NO.    9, LENGTH =   2630000.    
                            -----------------------------------------------

                              NUMBER OF TIME STEPS =    30

                               MULTIPLIER FOR DELT =     1.000

                            INITIAL TIME STEP SIZE =   87666.66    

 REUSING NON-PARAMETER GHB CELLS FROM LAST STRESS PERIOD

      2 GHB CELLS

 REUSING STREAM SEGMENT DATA FROM LAST STRESS PERIOD



            AREAL INFILTRATION RATE
 READING ON UNIT   19 WITH FORMAT: (FREE)              

            1           2           3           4           5           6           7           8           9          10
 ........................................................................................................................
   1   1.0000E-10  2.0000E-10   0.000       0.000       0.000       0.000       0.000       0.000       0.000       0.000    
   2   2.0000E-10  1.0000E-10  2.0000E-10   0.000       0.000      8.0000E-10  8.0000E-10  5.0000E-10   0.000       0.000    
   3    0.000      5.0000E-10  1.0000E-10  1.0000E-10  8.0000E-10  8.0000E-10  5.0000E-10  5.0000E-10   0.000       0.000    
   4   8.0000E-10  5.0000E-10  1.0000E-10  1.0000E-10  1.0000E-10  1.0000E-10  1.0000E-10  1.0000E-10  2.0000E-10   0.000    
   5   8.0000E-10  5.0000E-10  1.0000E-10  1.0000E-10  1.0000E-10  1.0000E-10  1.0000E-10  1.0000E-10  1.0000E-10  1.0000E-10
   6   8.0000E-10  5.0000E-10  5.0000E-10  2.0000E-10  2.0000E-10  1.0000E-10  1.0000E-10  1.0000E-10  1.0000E-10  5.0000E-10
   7   8.0000E-10  5.0000E-10  5.0000E-10  2.0000E-10  2.0000E-10  1.0000E-10  1.0000E-10  2.0000E-10  2.0000E-10   0.000    
   8    0.000      5.0000E-10  5.0000E-10  2.0000E-10  2.0000E-10  1.0000E-10  1.0000E-10  2.0000E-10  5.0000E-10   0.000    
   9    0.000      5.0000E-10  5.0000E-10  2.0000E-10  2.0000E-10  1.0000E-10  1.0000E-10  2.0000E-10  5.0000E-10   0.000    
  10    0.000      5.0000E-10  5.0000E-10  2.0000E-10  2.0000E-10  1.0000E-10  1.0000E-10  2.0000E-10  5.0000E-10  8.0000E-10
  11    0.000      1.0000E-10  1.0000E-10  1.0000E-10  1.0000E-10  1.0000E-10  1.0000E-10  2.0000E-10  5.0000E-10   0.000    
  12   1.0000E-10  1.0000E-10  1.0000E-10  1.0000E-10  1.0000E-10  1.0000E-10  1.0000E-10  1.0000E-10  2.0000E-10   0.000    
  13   1.0000E-10  1.0000E-10  2.0000E-10  2.0000E-10  2.0000E-10  2.0000E-10  2.0000E-10  1.0000E-10  1.0000E-10   0.000    
  14    0.000      2.0000E-10  5.0000E-10  5.0000E-10  5.0000E-10  5.0000E-10  5.0000E-10  2.0000E-10  1.0000E-10   0.000    
  15    0.000       0.000      8.0000E-10  8.0000E-10  8.0000E-10  8.0000E-10   0.000       0.000       0.000       0.000    

                  ET RATE =  3.250000E-07

 USING ET EXTINCTION DEPTH FROM PREVIOUS STRESS PERIOD. CURRENT PERIOD IS:       9

 USING EXTINCTION WATER CONTENT FROM PREVIOUS STRESS PERIOD. CURRENT PERIOD IS:       9

 USING AIR ENTRY PRESSURE FROM PREVIOUS STRESS PERIOD. CURRENT PERIOD IS:       9

 USING ROOT PRESSURE HEAD FROM PREVIOUS STRESS PERIOD. CURRENT PERIOD IS:       9

 USING ROOT ACTIVITY FROM PREVIOUS STRESS PERIOD. CURRENT PERIOD IS:       9

 PROCESSING AG STRESS PERIOD DATA

 READING AG STRESS PERIOD DATA

 READING IRRIGATION SEGMENT

 READING IRRIGATION WELL

 READING SUPPLEMENTAL WELL

 END PROCESSING AG STRESS PERIOD DATA OPTIONS
 
 SOLVING FOR HEAD 
                                                   Max.-Head-Change                         Max.-Flux-Residual
  Residual-Control   Outer-Iter.   Inner-Iter.     Column Row Layer    Maximum-Head-Change  Column Row Layer    Maximum-Flux-Residual          L2-NORM 
          0                 1           2             5    8     1       0.9702899438E-01       5    8    1         0.5296310561E+01      0.1249940010E+02
          0                 2           2             4    7     1      -0.2498375956E+00       5    8    1        -0.1364374020E+02      0.3319962971E+02
          0                 3           2             4    7     1       0.1701272171E-01       5    8    1         0.9550396589E+00      0.2324542436E+01
          0                 4           2             4    7     1      -0.6769535062E-03       5    8    1        -0.3906059914E-01      0.9511990394E-01
          0                 5           1             4    7     1       0.8347128034E-05       5    8    1         0.4949738664E-03      0.1214148900E-02

    ------------------------------------------------
       NWT REQUIRED            5 OUTER ITERATIONS 
       AND A TOTAL OF          9 INNER ITERATIONS.
    ------------------------------------------------

 NO OUTPUT CONTROL FOR STRESS PERIOD    9   TIME STEP    1
 
 SOLVING FOR HEAD 
                                                   Max.-Head-Change                         Max.-Flux-Residual
  Residual-Control   Outer-Iter.   Inner-Iter.     Column Row Layer    Maximum-Head-Change  Column Row Layer    Maximum-Flux-Residual          L2-NORM 
          0                 1           2             5    8     1       0.9953851404E-01       5    8    1         0.5432961973E+01      0.1282574331E+02
          0                 2           2             5    8     1      -0.4128932220E-01       5    8    1        -0.2283674151E+01      0.5416187132E+01
          0                 3           2             4    7     1       0.2517843356E-01       5    8    1         0.1405847859E+01      0.3438564332E+01
          0                 4           2             4    7     1      -0.2419752473E-02       5    8    1        -0.1378987173E+00      0.3431859011E+00
          0                 5           2             4    7     1      -0.1395923715E-02       4    7    1        -0.7915952518E-01      0.1939376876E+00
          0                 6           2             4    7     1      -0.1402350684E-02       5    8    1        -0.7952406859E-01      0.1947923107E+00
          0                 7           1             4    7     1       0.1731886784E-04       4    7    1         0.1009309675E-02      0.2472554325E-02

    ------------------------------------------------
       NWT REQUIRED            7 OUTER ITERATIONS 
       AND A TOTAL OF         13 INNER ITERATIONS.
    ------------------------------------------------

 NO OUTPUT CONTROL FOR STRESS PERIOD    9   TIME STEP    2
 
 SOLVING FOR HEAD 
                                                   Max.-Head-Change                         Max.-Flux-Residual
  Residual-Control   Outer-Iter.   Inner-Iter.     Column Row Layer    Maximum-Head-Change  Column Row Layer    Maximum-Flux-Residual          L2-NORM 
          0                 1           2             5    8     1       0.9525186313E-01       5    8    1         0.5194520787E+01      0.1239764920E+02
          0                 2           2             5    7     1      -0.1763591384E+00       5    8    1        -0.9669305280E+01      0.2349512184E+02
          0                 3           2             5    7     1       0.1200926616E-01       5    8    1         0.6768441072E+00      0.1645505909E+01
          0                 4           2             5    7     1      -0.4778605894E-03       5    8    1        -0.2768299759E-01      0.6736659414E-01
          0                 5           1             5    7     1       0.5892234639E-05       5    8    1         0.3508288546E-03      0.8659795427E-03

    ------------------------------------------------
       NWT REQUIRED            5 OUTER ITERATIONS 
       AND A TOTAL OF          9 INNER ITERATIONS.
    ------------------------------------------------

 NO OUTPUT CONTROL FOR STRESS PERIOD    9   TIME STEP    3
 
 SOLVING FOR HEAD 
                                                   Max.-Head-Change                         Max.-Flux-Residual
  Residual-Control   Outer-Iter.   Inner-Iter.     Column Row Layer    Maximum-Head-Change  Column Row Layer    Maximum-Flux-Residual          L2-NORM 
          0                 1           2             5    8     1       0.9578741480E-01       5    8    1         0.5222469091E+01      0.1249696464E+02
          0                 2           2             5    6     1      -0.5041250365E-01       5    8    1        -0.2784293825E+01      0.6670886735E+01
          0                 3           2             4    7     1       0.1785924749E-01       5    8    1         0.9998904968E+00      0.2440245724E+01
          0                 4           2             4    7     1      -0.7106377416E-03       5    8    1        -0.4089461974E-01      0.1001679141E+00
          0                 5           1             4    7     1       0.8762468964E-05       5    8    1         0.5181902125E-03      0.1329047696E-02

    ------------------------------------------------
       NWT REQUIRED            5 OUTER ITERATIONS 
       AND A TOTAL OF          9 INNER ITERATIONS.
    ------------------------------------------------

 NO OUTPUT CONTROL FOR STRESS PERIOD    9   TIME STEP    4
 
 SOLVING FOR HEAD 
                                                   Max.-Head-Change                         Max.-Flux-Residual
  Residual-Control   Outer-Iter.   Inner-Iter.     Column Row Layer    Maximum-Head-Change  Column Row Layer    Maximum-Flux-Residual          L2-NORM 
          0                 1           2             5    8     1       0.9216616890E-01       5    8    1         0.5021063092E+01      0.1213711823E+02
          0                 2           2             4    7     1      -0.1880152212E+00       5    8    1        -0.1027642033E+02      0.2500939882E+02
          0                 3           2             4    7     1       0.1280297820E-01       5    8    1         0.7193411580E+00      0.1751443544E+01
          0                 4           2             4    7     1      -0.5094432484E-03       5    8    1        -0.2942113411E-01      0.7169507051E-01
          0                 5           1             4    7     1       0.6281655000E-05       5    8    1         0.3728564036E-03      0.9200391365E-03

    ------------------------------------------------
       NWT REQUIRED            5 OUTER ITERATIONS 
       AND A TOTAL OF          9 INNER ITERATIONS.
    ------------------------------------------------

 NO OUTPUT CONTROL FOR STRESS PERIOD    9   TIME STEP    5
 
 SOLVING FOR HEAD 
                                                   Max.-Head-Change                         Max.-Flux-Residual
  Residual-Control   Outer-Iter.   Inner-Iter.     Column Row Layer    Maximum-Head-Change  Column Row Layer    Maximum-Flux-Residual          L2-NORM 
          0                 1           2             5    8     1       0.9327120714E-01       5    8    1         0.5080702107E+01      0.1229063544E+02
          0                 2           2             5    6     1      -0.4853506631E-01       5    8    1        -0.2679053886E+01      0.6436085055E+01
          0                 3           2             4    7     1       0.1940605245E-01       5    8    1         0.1083587363E+01      0.2647947094E+01
          0                 4           2             4    7     1      -0.7721868959E-03       5    8    1        -0.4431610004E-01      0.1087291163E+00
          0                 5           1             4    7     1       0.9521396024E-05       5    8    1         0.5614326703E-03      0.1447552066E-02

    ------------------------------------------------
       NWT REQUIRED            5 OUTER ITERATIONS 
       AND A TOTAL OF          9 INNER ITERATIONS.
    ------------------------------------------------

 NO OUTPUT CONTROL FOR STRESS PERIOD    9   TIME STEP    6
 
 SOLVING FOR HEAD 
                                                   Max.-Head-Change                         Max.-Flux-Residual
  Residual-Control   Outer-Iter.   Inner-Iter.     Column Row Layer    Maximum-Head-Change  Column Row Layer    Maximum-Flux-Residual          L2-NORM 
          0                 1           2             5    8     1       0.8974702147E-01       5    8    1         0.4884875041E+01      0.1193782971E+02
          0                 2           2             4    7     1      -0.1847560962E+00       5    8    1        -0.1007926068E+02      0.2454999266E+02
          0                 3           2             4    7     1       0.1258104667E-01       5    8    1         0.7055403614E+00      0.1719294941E+01
          0                 4           2             4    7     1      -0.5006123715E-03       5    8    1        -0.2885667898E-01      0.7038083135E-01
          0                 5           1             4    7     1       0.6172766162E-05       5    8    1         0.3657030024E-03      0.9034768526E-03

    ------------------------------------------------
       NWT REQUIRED            5 OUTER ITERATIONS 
       AND A TOTAL OF          9 INNER ITERATIONS.
    ------------------------------------------------

 NO OUTPUT CONTROL FOR STRESS PERIOD    9   TIME STEP    7
 
 SOLVING FOR HEAD 
                                                   Max.-Head-Change                         Max.-Flux-Residual
  Residual-Control   Outer-Iter.   Inner-Iter.     Column Row Layer    Maximum-Head-Change  Column Row Layer    Maximum-Flux-Residual          L2-NORM 
          0                 1           2             5    8     1       0.9093869146E-01       5    8    1         0.4949499447E+01      0.1209355987E+02
          0                 2           2             5    6     1      -0.4880662282E-01       5    8    1        -0.2692270029E+01      0.6488838037E+01
          0                 3           2             4    7     1       0.1897233229E-01       5    8    1         0.1058176656E+01      0.2586960198E+01
          0                 4           2             4    7     1      -0.7549286978E-03       5    8    1        -0.4327657306E-01      0.1062136802E+00
          0                 5           1             4    7     1       0.9308594832E-05       5    8    1         0.5482435402E-03      0.1413161599E-02

    ------------------------------------------------
       NWT REQUIRED            5 OUTER ITERATIONS 
       AND A TOTAL OF          9 INNER ITERATIONS.
    ------------------------------------------------

 NO OUTPUT CONTROL FOR STRESS PERIOD    9   TIME STEP    8
 
 SOLVING FOR HEAD 
                                                   Max.-Head-Change                         Max.-Flux-Residual
  Residual-Control   Outer-Iter.   Inner-Iter.     Column Row Layer    Maximum-Head-Change  Column Row Layer    Maximum-Flux-Residual          L2-NORM 
          0                 1           2             5    6     1       0.8772944067E-01       5    8    1         0.4765232922E+01      0.1176018197E+02
          0                 2           2             4    7     1      -0.1859004261E+00       5    8    1        -0.1012111461E+02      0.2467242011E+02
          0                 3           2             4    7     1       0.1265896600E-01       5    8    1         0.7084700887E+00      0.1727854628E+01
          0                 4           2             4    7     1      -0.5037128804E-03       5    8    1        -0.2897650520E-01      0.7073015957E-01
          0                 5           1             4    7     1       0.6210997274E-05       5    8    1         0.3672215730E-03      0.9077758668E-03

    ------------------------------------------------
       NWT REQUIRED            5 OUTER ITERATIONS 
       AND A TOTAL OF          9 INNER ITERATIONS.
    ------------------------------------------------

 NO OUTPUT CONTROL FOR STRESS PERIOD    9   TIME STEP    9
 
 SOLVING FOR HEAD 
                                                   Max.-Head-Change                         Max.-Flux-Residual
  Residual-Control   Outer-Iter.   Inner-Iter.     Column Row Layer    Maximum-Head-Change  Column Row Layer    Maximum-Flux-Residual          L2-NORM 
          0                 1           2             5    6     1       0.8905677603E-01       5    8    1         0.4840574743E+01      0.1193028810E+02
          0                 2           2             5    6     1      -0.4849192544E-01       5    8    1        -0.2673268820E+01      0.6460245548E+01
          0                 3           2             4    7     1       0.1911226692E-01       5    8    1         0.1064604961E+01      0.2604139456E+01
          0                 4           2             4    7     1      -0.7604968775E-03       5    8    1        -0.4353892464E-01      0.1069219387E+00
          0                 5           1             4    7     1       0.9377253317E-05       5    6    1         0.5515744795E-03      0.1423407677E-02

    ------------------------------------------------
       NWT REQUIRED            5 OUTER ITERATIONS 
       AND A TOTAL OF          9 INNER ITERATIONS.
    ------------------------------------------------

 NO OUTPUT CONTROL FOR STRESS PERIOD    9   TIME STEP   10
 
 SOLVING FOR HEAD 
                                                   Max.-Head-Change                         Max.-Flux-Residual
  Residual-Control   Outer-Iter.   Inner-Iter.     Column Row Layer    Maximum-Head-Change  Column Row Layer    Maximum-Flux-Residual          L2-NORM 
          0                 1           2             5    6     1       0.8606420647E-01       5    6    1         0.4665282610E+01      0.1160981834E+02
          0                 2           2             4    7     1      -0.1857322573E+00       5    6    1        -0.1009532796E+02      0.2462597480E+02
          0                 3           2             4    7     1       0.1264751191E-01       5    6    1         0.7066648344E+00      0.1724597599E+01
          0                 4           2             4    7     1      -0.5032571224E-03       5    6    1        -0.2890267108E-01      0.7059650773E-01
          0                 5           1             4    7     1       0.6205377377E-05       5    6    1         0.3662858644E-03      0.9060234545E-03

    ------------------------------------------------
       NWT REQUIRED            5 OUTER ITERATIONS 
       AND A TOTAL OF          9 INNER ITERATIONS.
    ------------------------------------------------

 NO OUTPUT CONTROL FOR STRESS PERIOD    9   TIME STEP   11
 
 SOLVING FOR HEAD 
                                                   Max.-Head-Change                         Max.-Flux-Residual
  Residual-Control   Outer-Iter.   Inner-Iter.     Column Row Layer    Maximum-Head-Change  Column Row Layer    Maximum-Flux-Residual          L2-NORM 
          0                 1           2             5    6     1       0.8750333875E-01       5    8    1         0.4747455592E+01      0.1178831436E+02
          0                 2           2             5    6     1      -0.4838219453E-01       5    8    1        -0.2666581214E+01      0.6457503653E+01
          0                 3           2             4    7     1       0.1908204232E-01       5    8    1         0.1061863628E+01      0.2598433256E+01
          0                 4           2             4    7     1      -0.7592942252E-03       5    8    1        -0.4342641816E-01      0.1066858935E+00
          0                 5           1             4    7     1       0.9362423897E-05       5    6    1         0.5501350111E-03      0.1419788748E-02

    ------------------------------------------------
       NWT REQUIRED            5 OUTER ITERATIONS 
       AND A TOTAL OF          9 INNER ITERATIONS.
    ------------------------------------------------

 NO OUTPUT CONTROL FOR STRESS PERIOD    9   TIME STEP   12
 
 SOLVING FOR HEAD 
                                                   Max.-Head-Change                         Max.-Flux-Residual
  Residual-Control   Outer-Iter.   Inner-Iter.     Column Row Layer    Maximum-Head-Change  Column Row Layer    Maximum-Flux-Residual          L2-NORM 
          0                 1           2             5    6     1       0.8462556777E-01       5    6    1         0.4584672036E+01      0.1148014737E+02
          0                 2           2             4    7     1      -0.1859304734E+00       5    6    1        -0.1009190016E+02      0.2463062450E+02
          0                 3           2             4    7     1       0.1266100685E-01       5    6    1         0.7064248924E+00      0.1724914940E+01
          0                 4           2             4    7     1      -0.5037941128E-03       5    6    1        -0.2889285744E-01      0.7060884784E-01
          0                 5           1             4    7     1       0.6211998574E-05       5    6    1         0.3661614983E-03      0.9061065245E-03

    ------------------------------------------------
       NWT REQUIRED            5 OUTER ITERATIONS 
       AND A TOTAL OF          9 INNER ITERATIONS.
    ------------------------------------------------

 NO OUTPUT CONTROL FOR STRESS PERIOD    9   TIME STEP   13
 
 SOLVING FOR HEAD 
                                                   Max.-Head-Change                         Max.-Flux-Residual
  Residual-Control   Outer-Iter.   Inner-Iter.     Column Row Layer    Maximum-Head-Change  Column Row Layer    Maximum-Flux-Residual          L2-NORM 
          0                 1           2             5    6     1       0.8617122879E-01       5    6    1         0.4668922911E+01      0.1166675311E+02
          0                 2           2             5    6     1      -0.4824058526E-01       5    6    1        -0.2658060687E+01      0.6448829924E+01
          0                 3           2             4    7     1       0.1910049858E-01       5    6    1         0.1061934403E+01      0.2599534675E+01
          0                 4           2             4    7     1      -0.7600286375E-03       5    6    1        -0.4342986364E-01      0.1067307341E+00
          0                 5           1             4    7     1       0.9371479625E-05       5    6    1         0.5501586977E-03      0.1420536852E-02

    ------------------------------------------------
       NWT REQUIRED            5 OUTER ITERATIONS 
       AND A TOTAL OF          9 INNER ITERATIONS.
    ------------------------------------------------

 NO OUTPUT CONTROL FOR STRESS PERIOD    9   TIME STEP   14
 
 SOLVING FOR HEAD 
                                                   Max.-Head-Change                         Max.-Flux-Residual
  Residual-Control   Outer-Iter.   Inner-Iter.     Column Row Layer    Maximum-Head-Change  Column Row Layer    Maximum-Flux-Residual          L2-NORM 
          0                 1           2             5    6     1       0.8339021260E-01       5    6    1         0.4515411158E+01      0.1136895077E+02
          0                 2           2             4    7     1      -0.1860046920E+00       5    6    1        -0.1008361440E+02      0.2462163820E+02
          0                 3           2             4    7     1       0.1266605854E-01       5    6    1         0.7058449004E+00      0.1724278995E+01
          0                 4           2             4    7     1      -0.5039951353E-03       5    6    1        -0.2886913567E-01      0.7058229207E-01
          0                 5           1             4    7     1       0.6214477351E-05       5    6    1         0.3658608748E-03      0.9057112463E-03

    ------------------------------------------------
       NWT REQUIRED            5 OUTER ITERATIONS 
       AND A TOTAL OF          9 INNER ITERATIONS.
    ------------------------------------------------

 NO OUTPUT CONTROL FOR STRESS PERIOD    9   TIME STEP   15
 
 SOLVING FOR HEAD 
                                                   Max.-Head-Change                         Max.-Flux-Residual
  Residual-Control   Outer-Iter.   Inner-Iter.     Column Row Layer    Maximum-Head-Change  Column Row Layer    Maximum-Flux-Residual          L2-NORM 
          0                 1           2             5    6     1       0.8502539674E-01       5    6    1         0.4604658316E+01      0.1156206806E+02
          0                 2           2             5    6     1      -0.4813279961E-01       5    6    1        -0.2651830473E+01      0.6443333154E+01
          0                 3           2             4    7     1       0.1910360935E-01       5    6    1         0.1061302307E+01      0.2598725281E+01
          0                 4           2             4    7     1      -0.7601524333E-03       5    6    1        -0.4340372166E-01      0.1066968209E+00
          0                 5           1             4    7     1       0.9373005715E-05       5    6    1         0.5498077528E-03      0.1420214186E-02

    ------------------------------------------------
       NWT REQUIRED            5 OUTER ITERATIONS 
       AND A TOTAL OF          9 INNER ITERATIONS.
    ------------------------------------------------

 NO OUTPUT CONTROL FOR STRESS PERIOD    9   TIME STEP   16
 
 SOLVING FOR HEAD 
                                                   Max.-Head-Change                         Max.-Flux-Residual
  Residual-Control   Outer-Iter.   Inner-Iter.     Column Row Layer    Maximum-Head-Change  Column Row Layer    Maximum-Flux-Residual          L2-NORM 
          0                 1           2             5    6     1       0.8232888621E-01       5    6    1         0.4455861133E+01      0.1127340193E+02
          0                 2           2             4    7     1      -0.1861040890E+00       5    6    1        -0.1007805923E+02      0.2461784391E+02
          0                 3           2             4    7     1       0.1267282492E-01       5    6    1         0.7054560430E+00      0.1724006791E+01
          0                 4           2             4    7     1      -0.5042643865E-03       5    6    1        -0.2885323136E-01      0.7057063824E-01
          0                 5           1             4    7     1       0.6217797022E-05       5    6    1         0.3656593187E-03      0.9054959074E-03

    ------------------------------------------------
       NWT REQUIRED            5 OUTER ITERATIONS 
       AND A TOTAL OF          9 INNER ITERATIONS.
    ------------------------------------------------

 NO OUTPUT CONTROL FOR STRESS PERIOD    9   TIME STEP   17
 
 SOLVING FOR HEAD 
                                                   Max.-Head-Change                         Max.-Flux-Residual
  Residual-Control   Outer-Iter.   Inner-Iter.     Column Row Layer    Maximum-Head-Change  Column Row Layer    Maximum-Flux-Residual          L2-NORM 
          0                 1           2             5    6     1       0.8404258699E-01       5    6    1         0.4549486807E+01      0.1147214749E+02
          0                 2           2             5    6     1      -0.4803626573E-01       5    6    1        -0.2646256341E+01      0.6438158795E+01
          0                 3           2             4    7     1       0.1911054097E-01       5    6    1         0.1060969576E+01      0.2598554139E+01
          0                 4           2             4    7     1      -0.7604282637E-03       5    6    1        -0.4338985297E-01      0.1066892570E+00
          0                 5           1             4    7     1       0.9376407157E-05       5    6    1         0.5496143433E-03      0.1420161191E-02

    ------------------------------------------------
       NWT REQUIRED            5 OUTER ITERATIONS 
       AND A TOTAL OF          9 INNER ITERATIONS.
    ------------------------------------------------

 NO OUTPUT CONTROL FOR STRESS PERIOD    9   TIME STEP   18
 
 SOLVING FOR HEAD 
                                                   Max.-Head-Change                         Max.-Flux-Residual
  Residual-Control   Outer-Iter.   Inner-Iter.     Column Row Layer    Maximum-Head-Change  Column Row Layer    Maximum-Flux-Residual          L2-NORM 
          0                 1           2             5    6     1       0.8141929826E-01       5    6    1         0.4404772852E+01      0.1119148361E+02
          0                 2           2             4    7     1      -0.1861785525E+00       5    6    1        -0.1007283332E+02      0.2461357260E+02
          0                 3           2             4    7     1       0.1267789382E-01       5    6    1         0.7050882086E+00      0.1723700033E+01
          0                 4           2             4    7     1      -0.5044660910E-03       5    6    1        -0.2883799076E-01      0.7055740260E-01
          0                 5           1             4    7     1       0.6220284312E-05       5    6    1         0.3654528489E-03      0.9052022543E-03

    ------------------------------------------------
       NWT REQUIRED            5 OUTER ITERATIONS 
       AND A TOTAL OF          9 INNER ITERATIONS.
    ------------------------------------------------

 NO OUTPUT CONTROL FOR STRESS PERIOD    9   TIME STEP   19
 
 SOLVING FOR HEAD 
                                                   Max.-Head-Change                         Max.-Flux-Residual
  Residual-Control   Outer-Iter.   Inner-Iter.     Column Row Layer    Maximum-Head-Change  Column Row Layer    Maximum-Flux-Residual          L2-NORM 
          0                 1           2             5    6     1       0.8320106804E-01       5    6    1         0.4502191833E+01      0.1139499823E+02
          0                 2           2             5    7     1      -0.4800030403E-01       5    6    1        -0.2641543750E+01      0.6433989344E+01
          0                 3           2             4    7     1       0.1911521601E-01       5    6    1         0.1060623004E+01      0.2598264234E+01
          0                 4           2             4    7     1      -0.7606142999E-03       5    6    1        -0.4337544664E-01      0.1066768095E+00
          0                 5           1             4    7     1       0.9378700885E-05       5    6    1         0.5494160484E-03      0.1419704513E-02

    ------------------------------------------------
       NWT REQUIRED            5 OUTER ITERATIONS 
       AND A TOTAL OF          9 INNER ITERATIONS.
    ------------------------------------------------

 NO OUTPUT CONTROL FOR STRESS PERIOD    9   TIME STEP   20
 
 SOLVING FOR HEAD 
                                                   Max.-Head-Change                         Max.-Flux-Residual
  Residual-Control   Outer-Iter.   Inner-Iter.     Column Row Layer    Maximum-Head-Change  Column Row Layer    Maximum-Flux-Residual          L2-NORM 
          0                 1           2             5    6     1       0.8064168986E-01       5    6    1         0.4361039471E+01      0.1112132702E+02
          0                 2           2             4    7     1      -0.1862479478E+00       5    6    1        -0.1006849452E+02      0.2461036437E+02
          0                 3           2             4    7     1       0.1268261778E-01       5    6    1         0.7047812490E+00      0.1723469036E+01
          0                 4           2             4    7     1      -0.5046540694E-03       5    6    1        -0.2882512161E-01      0.7054759106E-01
          0                 5           1             4    7     1       0.6222602123E-05       5    6    1         0.3652683972E-03      0.9051080663E-03

    ------------------------------------------------
       NWT REQUIRED            5 OUTER ITERATIONS 
       AND A TOTAL OF          9 INNER ITERATIONS.
    ------------------------------------------------

 NO OUTPUT CONTROL FOR STRESS PERIOD    9   TIME STEP   21
 
 SOLVING FOR HEAD 
                                                   Max.-Head-Change                         Max.-Flux-Residual
  Residual-Control   Outer-Iter.   Inner-Iter.     Column Row Layer    Maximum-Head-Change  Column Row Layer    Maximum-Flux-Residual          L2-NORM 
          0                 1           2             5    6     1       0.8248260804E-01       5    6    1         0.4461752801E+01      0.1132886847E+02
          0                 2           2             5    7     1      -0.4798933554E-01       5    6    1        -0.2637495037E+01      0.6430481959E+01
          0                 3           2             4    7     1       0.1911975379E-01       5    6    1         0.1060344479E+01      0.2598065691E+01
          0                 4           2             4    7     1      -0.7607948736E-03       5    6    1        -0.4336384730E-01      0.1066704675E+00
          0                 5           1             4    7     1       0.9380927516E-05       5    6    1         0.5492549424E-03      0.1421125195E-02

    ------------------------------------------------
       NWT REQUIRED            5 OUTER ITERATIONS 
       AND A TOTAL OF          9 INNER ITERATIONS.
    ------------------------------------------------

 NO OUTPUT CONTROL FOR STRESS PERIOD    9   TIME STEP   22
 
 SOLVING FOR HEAD 
                                                   Max.-Head-Change                         Max.-Flux-Residual
  Residual-Control   Outer-Iter.   Inner-Iter.     Column Row Layer    Maximum-Head-Change  Column Row Layer    Maximum-Flux-Residual          L2-NORM 
          0                 1           2             5    6     1       0.7997876796E-01       5    6    1         0.4323693492E+01      0.1106136403E+02
          0                 2           2             4    7     1      -0.1863096479E+00       5    6    1        -0.1006475056E+02      0.2460765882E+02
          0                 3           2             4    7     1       0.1268681791E-01       5    6    1         0.7045162578E+00      0.1723270765E+01
          0                 4           2             4    7     1      -0.5048212033E-03       5    6    1        -0.2881400102E-01      0.7053873723E-01
          0                 5           1             4    7     1       0.6224662972E-05       5    6    1         0.3651082750E-03      0.9048829298E-03

    ------------------------------------------------
       NWT REQUIRED            5 OUTER ITERATIONS 
       AND A TOTAL OF          9 INNER ITERATIONS.
    ------------------------------------------------

 NO OUTPUT CONTROL FOR STRESS PERIOD    9   TIME STEP   23
 
 SOLVING FOR HEAD 
                                                   Max.-Head-Change                         Max.-Flux-Residual
  Residual-Control   Outer-Iter.   Inner-Iter.     Column Row Layer    Maximum-Head-Change  Column Row Layer    Maximum-Flux-Residual          L2-NORM 
          0                 1           2             5    6     1       0.8187121926E-01       5    6    1         0.4427275333E+01      0.1127235751E+02
          0                 2           2             5    7     1      -0.4798040020E-01       5    6    1        -0.2634048899E+01      0.6427625843E+01
          0                 3           2             4    7     1       0.1912374661E-01       5    6    1         0.1060101817E+01      0.2597895246E+01
          0                 4           2             4    7     1      -0.7609537615E-03       5    6    1        -0.4335373561E-01      0.1066629461E+00
          0                 5           1             4    7     1       0.9382886656E-05       5    6    1         0.5491141160E-03      0.1421159630E-02

    ------------------------------------------------
       NWT REQUIRED            5 OUTER ITERATIONS 
       AND A TOTAL OF          9 INNER ITERATIONS.
    ------------------------------------------------

 NO OUTPUT CONTROL FOR STRESS PERIOD    9   TIME STEP   24
 
 SOLVING FOR HEAD 
                                                   Max.-Head-Change                         Max.-Flux-Residual
  Residual-Control   Outer-Iter.   Inner-Iter.     Column Row Layer    Maximum-Head-Change  Column Row Layer    Maximum-Flux-Residual          L2-NORM 
          0                 1           2             5    6     1       0.7941588154E-01       5    6    1         0.4291915850E+01      0.1101029957E+02
          0                 2           2             4    7     1      -0.1863655430E+00       5    6    1        -0.1006157487E+02      0.2460551949E+02
          0                 3           2             4    7     1       0.1269062289E-01       5    6    1         0.7042913301E+00      0.1723112755E+01
          0                 4           2             4    7     1      -0.5049726130E-03       5    6    1        -0.2880454680E-01      0.7053160276E-01
          0                 5           1             4    7     1       0.6226529923E-05       5    6    1         0.3649711621E-03      0.9047011155E-03

    ------------------------------------------------
       NWT REQUIRED            5 OUTER ITERATIONS 
       AND A TOTAL OF          9 INNER ITERATIONS.
    ------------------------------------------------

 NO OUTPUT CONTROL FOR STRESS PERIOD    9   TIME STEP   25
 
 SOLVING FOR HEAD 
                                                   Max.-Head-Change                         Max.-Flux-Residual
  Residual-Control   Outer-Iter.   Inner-Iter.     Column Row Layer    Maximum-Head-Change  Column Row Layer    Maximum-Flux-Residual          L2-NORM 
          0                 1           2             5    6     1       0.8135334229E-01       5    6    1         0.4398001472E+01      0.1122425801E+02
          0                 2           2             5    7     1      -0.4797333497E-01       5    6    1        -0.2631121439E+01      0.6425322832E+01
          0                 3           2             4    7     1       0.1912738452E-01       5    6    1         0.1059897250E+01      0.2597764327E+01
          0                 4           2             4    7     1      -0.7610985259E-03       5    6    1        -0.4334520015E-01      0.1066572351E+00
          0                 5           1             4    7     1       0.9384671724E-05       5    6    1         0.5489944876E-03      0.1420990563E-02

    ------------------------------------------------
       NWT REQUIRED            5 OUTER ITERATIONS 
       AND A TOTAL OF          9 INNER ITERATIONS.
    ------------------------------------------------

 NO OUTPUT CONTROL FOR STRESS PERIOD    9   TIME STEP   26
 
 SOLVING FOR HEAD 
                                                   Max.-Head-Change                         Max.-Flux-Residual
  Residual-Control   Outer-Iter.   Inner-Iter.     Column Row Layer    Maximum-Head-Change  Column Row Layer    Maximum-Flux-Residual          L2-NORM 
          0                 1           2             5    6     1       0.7894029163E-01       5    6    1         0.4264994826E+01      0.1096704078E+02
          0                 2           2             4    7     1      -0.1864161193E+00       5    6    1        -0.1005888292E+02      0.2460385316E+02
          0                 3           2             4    7     1       0.1269406582E-01       5    6    1         0.7041005131E+00      0.1722988595E+01
          0                 4           2             4    7     1      -0.5051096161E-03       5    6    1        -0.2879651199E-01      0.7052594170E-01
          0                 5           1             4    7     1       0.6228219331E-05       5    6    1         0.3648536822E-03      0.9046160550E-03

    ------------------------------------------------
       NWT REQUIRED            5 OUTER ITERATIONS 
       AND A TOTAL OF          9 INNER ITERATIONS.
    ------------------------------------------------

 NO OUTPUT CONTROL FOR STRESS PERIOD    9   TIME STEP   27
 
 SOLVING FOR HEAD 
                                                   Max.-Head-Change                         Max.-Flux-Residual
  Residual-Control   Outer-Iter.   Inner-Iter.     Column Row Layer    Maximum-Head-Change  Column Row Layer    Maximum-Flux-Residual          L2-NORM 
          0                 1           2             5    6     1       0.8091698995E-01       5    6    1         0.4373262133E+01      0.1118352888E+02
          0                 2           2             5    7     1      -0.4796813895E-01       5    6    1        -0.2628647655E+01      0.6423510890E+01
          0                 3           2             4    7     1       0.1913067989E-01       5    6    1         0.1059724083E+01      0.2597663504E+01
          0                 4           2             4    7     1      -0.7612296590E-03       5    6    1        -0.4333796479E-01      0.1066527048E+00
          0                 5           1             4    7     1       0.9386288210E-05       5    6    1         0.5488924148E-03      0.1420809665E-02

    ------------------------------------------------
       NWT REQUIRED            5 OUTER ITERATIONS 
       AND A TOTAL OF          9 INNER ITERATIONS.
    ------------------------------------------------

 NO OUTPUT CONTROL FOR STRESS PERIOD    9   TIME STEP   28
 
 SOLVING FOR HEAD 
                                                   Max.-Head-Change                         Max.-Flux-Residual
  Residual-Control   Outer-Iter.   Inner-Iter.     Column Row Layer    Maximum-Head-Change  Column Row Layer    Maximum-Flux-Residual          L2-NORM 
          0                 1           2             5    6     1       0.7854100662E-01       5    6    1         0.4242317196E+01      0.1093058922E+02
          0                 2           2             4    7     1      -0.1864620843E+00       5    6    1        -0.1005661530E+02      0.2460260605E+02
          0                 3           2             4    7     1       0.1269719487E-01       5    6    1         0.7039396166E+00      0.1722893648E+01
          0                 4           2             4    7     1      -0.5052341286E-03       5    6    1        -0.2878972214E-01      0.7052140796E-01
          0                 5           1             4    7     1       0.6229754718E-05       5    6    1         0.3647534277E-03      0.9044518154E-03

    ------------------------------------------------
       NWT REQUIRED            5 OUTER ITERATIONS 
       AND A TOTAL OF          9 INNER ITERATIONS.
    ------------------------------------------------

 NO OUTPUT CONTROL FOR STRESS PERIOD    9   TIME STEP   29
 
 SOLVING FOR HEAD 
                                                   Max.-Head-Change                         Max.-Flux-Residual
  Residual-Control   Outer-Iter.   Inner-Iter.     Column Row Layer    Maximum-Head-Change  Column Row Layer    Maximum-Flux-Residual          L2-NORM 
          0                 1           2             5    6     1       0.8055194124E-01       5    6    1         0.4352487471E+01      0.1114923499E+02
          0                 2           2             5    7     1      -0.4796468843E-01       5    6    1        -0.2626570327E+01      0.6422130752E+01
          0                 3           2             4    7     1       0.1913368101E-01       5    6    1         0.1059578668E+01      0.2597590066E+01
          0                 4           2             4    7     1      -0.7613490836E-03       5    6    1        -0.4333187838E-01      0.1066495379E+00
          0                 5           1             4    7     1       0.9387761317E-05       5    6    1         0.5488058362E-03      0.1420926788E-02

    ------------------------------------------------
       NWT REQUIRED            5 OUTER ITERATIONS 
       AND A TOTAL OF          9 INNER ITERATIONS.
    ------------------------------------------------

 NO OUTPUT CONTROL FOR STRESS PERIOD    9   TIME STEP   30



 STREAM LISTING     PERIOD      9   STEP       30

 LAYER ROW COL. STREAM  RCH.  FLOW INTO     FLOW TO   FLOW OUT OF   OVRLND.     DIRECT     STREAM       STREAM     STREAM     STREAM   STREAMBED  STREAMBED
                SEG.NO.  NO.  STRM. RCH.    AQUIFER    STRM. RCH.    RUNOFF     PRECIP       ET          HEAD       DEPTH      WIDTH   CONDCTNC.   GRADIENT

   1    1    1     1     1    2.2875E+01  2.3514E-01   2.2640E+01  0.000E+00  0.000E+00  0.000E+00  1.09419E+03  1.146E+00  1.260E+01  5.672E-02  1.382E+00
   1    2    2     1     2    2.2640E+01  3.6351E-01   2.2276E+01  0.000E+00  0.000E+00  0.000E+00  1.08920E+03  1.141E+00  1.254E+01  8.778E-02  1.380E+00
   1    3    3     1     3    2.2276E+01  3.0939E-01   2.1967E+01  0.000E+00  0.000E+00  0.000E+00  1.08355E+03  1.136E+00  1.247E+01  7.481E-02  1.379E+00
   1    3    4     1     4    2.1967E+01  2.8439E-01   2.1682E+01  0.000E+00  0.000E+00  0.000E+00  1.07854E+03  1.131E+00  1.240E+01  6.885E-02  1.377E+00
   1    4    5     2     1    1.9682E+01  3.1521E-01   1.9367E+01  0.000E+00  0.000E+00  0.000E+00  1.07298E+03  1.041E+00  1.200E+01  7.800E-02  1.347E+00
   1    5    6     2     2    1.9367E+01  2.4193E-01   1.9125E+01  0.000E+00  0.000E+00  0.000E+00  1.06754E+03  1.032E+00  1.200E+01  6.000E-02  1.344E+00
   1    6    6     2     3    1.9125E+01  2.4146E-01   1.8884E+01  0.000E+00  0.000E+00  0.000E+00  1.06282E+03  1.024E+00  1.200E+01  6.000E-02  1.341E+00
   1    7    6     2     4    1.8884E+01  2.4099E-01   1.8643E+01  0.000E+00  0.000E+00  0.000E+00  1.05809E+03  1.017E+00  1.200E+01  6.000E-02  1.339E+00
   1    8    6     2     5    1.8643E+01  2.4052E-01   1.8402E+01  0.000E+00  0.000E+00  0.000E+00  1.05337E+03  1.009E+00  1.200E+01  6.000E-02  1.336E+00
   1    3    5     3     1    2.0000E+00  2.8252E-01   1.7175E+00  0.000E+00  0.000E+00  0.000E+00  1.07555E+03  1.909E+00  9.636E+00  7.227E-02  1.955E+00
   1    3    6     3     2    1.7175E+00  2.4905E-01   1.4684E+00  0.000E+00  0.000E+00  0.000E+00  1.07264E+03  1.727E+00  8.909E+00  6.682E-02  1.864E+00
   1    3    7     3     3    1.4684E+00  1.9718E-01   1.2712E+00  0.000E+00  0.000E+00  0.000E+00  1.06987E+03  1.555E+00  8.218E+00  5.547E-02  1.777E+00
   1    4    8     3     4    1.2712E+00  2.2567E-01   1.0456E+00  0.000E+00  0.000E+00  0.000E+00  1.06682E+03  1.364E+00  7.455E+00  6.709E-02  1.682E+00
   1    5    8     3     5    1.0456E+00  1.5790E-01   8.8768E-01  0.000E+00  0.000E+00  0.000E+00  1.06362E+03  1.164E+00  6.655E+00  4.991E-02  1.582E+00
   1    6    8     3     6    8.8768E-01  5.5980E-02   8.3170E-01  0.000E+00  0.000E+00  0.000E+00  1.06158E+03  1.036E+00  6.145E+00  1.844E-02  1.518E+00
   1    5   10     4     1    1.0000E+01  9.0919E-02   9.9091E+00  0.000E+00  0.000E+00  0.000E+00  1.07836E+03  6.368E-01  1.000E+01  2.500E-02  1.212E+00
   1    5    9     4     2    9.9091E+00  1.8158E-01   9.7275E+00  0.000E+00  0.000E+00  0.000E+00  1.07154E+03  6.315E-01  1.000E+01  5.000E-02  1.211E+00
   1    6    8     4     3    9.7275E+00  1.2689E-01   9.6006E+00  0.000E+00  0.000E+00  0.000E+00  1.06381E+03  6.256E-01  1.000E+01  3.500E-02  1.209E+00
   1    6    8     5     1    1.0432E+01  2.2686E-01   1.0205E+01  0.000E+00  0.000E+00  0.000E+00  1.05868E+03  6.790E-01  1.542E+01  6.166E-02  1.226E+00
   1    7    7     5     2    1.0205E+01  2.7894E-01   9.9265E+00  0.000E+00  0.000E+00  0.000E+00  1.05417E+03  6.732E-01  1.519E+01  7.594E-02  1.224E+00
   1    8    7     5     3    9.9265E+00  1.9221E-01   9.7343E+00  0.000E+00  0.000E+00  0.000E+00  1.04992E+03  6.676E-01  1.497E+01  5.241E-02  1.223E+00
   1    8    6     5     4    9.7343E+00  1.3577E-01   9.5985E+00  0.000E+00  0.000E+00  0.000E+00  1.04691E+03  6.637E-01  1.482E+01  3.706E-02  1.221E+00
   1    9    6     6     1    9.5985E+00  2.2097E-01   9.3776E+00  0.000E+00  0.000E+00  0.000E+00  1.04341E+03  6.828E-01  1.200E+01  6.000E-02  1.228E+00
   1   10    7     6     2    9.3776E+00  2.2039E-01   9.1572E+00  0.000E+00  0.000E+00  0.000E+00  1.03885E+03  6.732E-01  1.200E+01  6.000E-02  1.224E+00
   1   11    7     6     3    9.1572E+00  2.1981E-01   8.9374E+00  0.000E+00  0.000E+00  0.000E+00  1.03430E+03  6.636E-01  1.200E+01  6.000E-02  1.221E+00
   1   12    7     6     4    8.9374E+00  2.1923E-01   8.7181E+00  0.000E+00  0.000E+00  0.000E+00  1.02974E+03  6.539E-01  1.200E+01  6.000E-02  1.218E+00
   1   13    7     6     5    8.7181E+00 -6.5086E-02   8.7832E+00  0.000E+00  0.000E+00  0.000E+00  1.02656E+03  6.504E-01  1.200E+01  2.400E-01 -9.040E-02
   1   14    9     7     1    1.5000E+02  1.3685E+00   1.4863E+02  0.000E+00  0.000E+00  0.000E+00  1.03987E+03  2.288E+00  5.529E+01  5.593E-01  8.156E-01
   1   13    8     7     2    1.4863E+02  1.9178E+00   1.4671E+02  0.000E+00  0.000E+00  0.000E+00  1.03478E+03  2.279E+00  5.526E+01  6.148E-01  1.040E+00
   1   13    7     7     3    1.4671E+02  1.5960E+00   1.4512E+02  0.000E+00  0.000E+00  0.000E+00  1.02969E+03  2.270E+00  5.521E+01  5.584E-01  9.527E-01
   1   13    6     8     1    1.5390E+02  9.4413E-01   1.5296E+02  0.000E+00  0.000E+00  0.000E+00  1.02472E+03  2.841E+00  4.119E+01  4.198E-01  7.497E-01
   1   13    5     8     2    1.5296E+02  2.0632E-01   1.5275E+02  0.000E+00  0.000E+00  0.000E+00  1.01846E+03  2.837E+00  4.113E+01  4.192E-01  1.641E-01
   1   13    4     8     3    1.5275E+02 -2.3156E+00   1.5507E+02  0.000E+00  0.000E+00  0.000E+00  1.01222E+03  2.844E+00  4.124E+01  4.203E+00 -1.837E-01
   1   13    3     8     4    1.5507E+02 -3.5797E+00   1.5865E+02  0.000E+00  0.000E+00  0.000E+00  1.00599E+03  2.864E+00  4.153E+01  4.233E+00 -2.819E-01
   1   13    2     8     5    1.5865E+02 -2.5638E+00   1.6121E+02  0.000E+00  0.000E+00  0.000E+00  9.99760E+02  2.885E+00  4.184E+01  4.263E+00 -2.005E-01
   1   13    1     8     6    1.6121E+02 -1.9816E+00   1.6319E+02  0.000E+00  0.000E+00  0.000E+00  9.94776E+02  2.901E+00  4.206E+01  2.572E+00 -2.569E-01
   1    8    6     9     1    1.8402E+01  0.0000E+00   1.8402E+01  0.000E+00  0.000E+00  0.000E+00  1.08202E+03  3.267E+00  4.000E+00  0.000E+00  2.089E+00
   1    8    5     9     2    1.8402E+01  0.0000E+00   1.8402E+01  0.000E+00  0.000E+00  0.000E+00  1.08152E+03  3.267E+00  4.000E+00  0.000E+00  2.089E+00





UNSATURATED ZONE PACKAGE VOLUMETRIC BUDGET FOR  TIME STEP    30 STRESS PERIOD    9
  ------------------------------------------------------------------------------



     CUMULATIVE VOLUMES      L**3       RATES FOR THIS TIME STEP      L**3/T
     ------------------                 ------------------------

           IN:                                      IN:
           ---                                      ---
        INFILTRATION =   479870665.9490          INFILTRATION =          27.1438

          OUT:                                     OUT:
          ----                                     ----
              UZF ET =   392216806.5817                UZF ET =          49.6308
        UZF RECHARGE =       73224.0000          UZF RECHARGE =       0.0000E+00

            IN - OUT =    87580635.3672              IN - OUT =         -22.4870

          STORAGE:                                 STORAGE:
          --------                                 --------
      STORAGE CHANGE =    87580618.4607        STORAGE CHANGE =         -22.4870

 PERCENT DISCREPANCY IS DIFFERENCE BETWEEN IN-OUT MINUS CHANGE IN STORAGE
 DIVIDED BY THE AVERAGE OF IN AND OUT TIMES 100

 PERCENT DISCREPANCY =           0.00     PERCENT DISCREPANCY =           0.00






1
  VOLUMETRIC BUDGET FOR AGRICULTURAL FIELDS AT  END OF TIME STEP   30, STRESS PERIOD   9
  ------------------------------------------------------------------------------

     CUMULATIVE VOLUMES      L**3       RATES FOR THIS TIME STEP      L**3/T
     ------------------                 ------------------------

           IN:                                      IN:
           ---                                      ---
               AG WELLS  =   288700672.0000                 AG WELLS  =           7.8937
      DIVERSION SEGMENTS =   173261856.0000        DIVERSION SEGMENTS =          18.4023
           GW IRRIGATION =           0.0000             GW IRRIGATION =           0.0000
           SW IRRIGATION =           0.0000             SW IRRIGATION =           0.0000
        SYSTEM LOSSES GW =           0.0000          SYSTEM LOSSES GW =           0.0000
        SYSTEM LOSSES SW =           0.0000          SYSTEM LOSSES SW =           0.0000

                TOTAL IN =   461962528.0000                  TOTAL IN =          26.2959

          OUT:                                     OUT:
          ----                                     ----
               AG WELLS  =           0.0000                 AG WELLS  =           0.0000
      DIVERSION SEGMENTS =           0.0000        DIVERSION SEGMENTS =           0.0000
           GW IRRIGATION =   288700672.0000             GW IRRIGATION =           7.8937
           SW IRRIGATION =   173265296.0000             SW IRRIGATION =          18.4027
        SYSTEM LOSSES GW =           0.0000          SYSTEM LOSSES GW =           0.0000
        SYSTEM LOSSES SW =           0.0000          SYSTEM LOSSES SW =           0.0000

               TOTAL OUT =   461965952.0000                 TOTAL OUT =          26.2963

                IN - OUT =       -3424.0000                  IN - OUT =      -3.6812E-04

     PERCENT DISCREPANCY =          -0.00         PERCENT DISCREPANCY =          -0.00



1
  VOLUMETRIC BUDGET FOR ENTIRE MODEL AT END OF TIME STEP   30, STRESS PERIOD   9
  ------------------------------------------------------------------------------

     CUMULATIVE VOLUMES      L**3       RATES FOR THIS TIME STEP      L**3/T
     ------------------                 ------------------------

           IN:                                      IN:
           ---                                      ---
             STORAGE     =   320437888.0000               STORAGE     =          23.4263
       CONSTANT HEAD     =           0.0000         CONSTANT HEAD     =           0.0000
     HEAD DEP BOUNDS     =     6082174.0000       HEAD DEP BOUNDS     =           0.2880
      STREAM LEAKAGE     =   250686128.0000        STREAM LEAKAGE     =          11.7871
        UZF RECHARGE     =       73223.9531          UZF RECHARGE     =           0.0000
               GW ET     =           0.0000                 GW ET     =           0.0000
     SURFACE LEAKAGE     =           0.0000       SURFACE LEAKAGE     =           0.0000
           AG WELLS      =           0.0000             AG WELLS      =           0.0000

                TOTAL IN =   577279424.0000                  TOTAL IN =          35.5014

          OUT:                                     OUT:
          ----                                     ----
             STORAGE     =    63733436.0000               STORAGE     =          16.8151
       CONSTANT HEAD     =           0.0000         CONSTANT HEAD     =           0.0000
     HEAD DEP BOUNDS     =     6092384.5000       HEAD DEP BOUNDS     =           0.2868
      STREAM LEAKAGE     =   218757728.0000        STREAM LEAKAGE     =          10.5058
        UZF RECHARGE     =           0.0000          UZF RECHARGE     =           0.0000
               GW ET     =           0.0000                 GW ET     =           0.0000
     SURFACE LEAKAGE     =           0.0000       SURFACE LEAKAGE     =           0.0000
           AG WELLS      =   288700672.0000             AG WELLS      =           7.8937

               TOTAL OUT =   577284224.0000                 TOTAL OUT =          35.5013

                IN - OUT =       -4800.0000                  IN - OUT =       6.8665E-05

     PERCENT DISCREPANCY =          -0.00         PERCENT DISCREPANCY =           0.00






         TIME SUMMARY AT END OF TIME STEP   30 IN STRESS PERIOD    9
                    SECONDS     MINUTES      HOURS       DAYS        YEARS
                    -----------------------------------------------------------
   TIME STEP LENGTH  87667.      1461.1      24.352      1.0147     2.77799E-03
 STRESS PERIOD TIME 2.63000E+06  43833.      730.56      30.440     8.33397E-02
         TOTAL TIME 2.11264E+07 3.52107E+05  5868.4      244.52     0.66945    
1
1
                            STRESS PERIOD NO.   10, LENGTH =   2630000.    
                            -----------------------------------------------

                              NUMBER OF TIME STEPS =    30

                               MULTIPLIER FOR DELT =     1.000

                            INITIAL TIME STEP SIZE =   87666.66    

 REUSING NON-PARAMETER GHB CELLS FROM LAST STRESS PERIOD

      2 GHB CELLS

 REUSING STREAM SEGMENT DATA FROM LAST STRESS PERIOD



            AREAL INFILTRATION RATE
 READING ON UNIT   19 WITH FORMAT: (FREE)              

            1           2           3           4           5           6           7           8           9          10
 ........................................................................................................................
   1   1.0000E-10  2.0000E-10   0.000       0.000       0.000       0.000       0.000       0.000       0.000       0.000    
   2   2.0000E-10  1.0000E-10  2.0000E-10   0.000       0.000      8.0000E-10  8.0000E-10  5.0000E-10   0.000       0.000    
   3    0.000      5.0000E-10  1.0000E-10  1.0000E-10  8.0000E-10  8.0000E-10  5.0000E-10  5.0000E-10   0.000       0.000    
   4   8.0000E-10  5.0000E-10  1.0000E-10  1.0000E-10  1.0000E-10  1.0000E-10  1.0000E-10  1.0000E-10  2.0000E-10   0.000    
   5   8.0000E-10  5.0000E-10  1.0000E-10  1.0000E-10  1.0000E-10  1.0000E-10  1.0000E-10  1.0000E-10  1.0000E-10  1.0000E-10
   6   8.0000E-10  5.0000E-10  5.0000E-10  2.0000E-10  2.0000E-10  1.0000E-10  1.0000E-10  1.0000E-10  1.0000E-10  5.0000E-10
   7   8.0000E-10  5.0000E-10  5.0000E-10  2.0000E-10  2.0000E-10  1.0000E-10  1.0000E-10  2.0000E-10  2.0000E-10   0.000    
   8    0.000      5.0000E-10  5.0000E-10  2.0000E-10  2.0000E-10  1.0000E-10  1.0000E-10  2.0000E-10  5.0000E-10   0.000    
   9    0.000      5.0000E-10  5.0000E-10  2.0000E-10  2.0000E-10  1.0000E-10  1.0000E-10  2.0000E-10  5.0000E-10   0.000    
  10    0.000      5.0000E-10  5.0000E-10  2.0000E-10  2.0000E-10  1.0000E-10  1.0000E-10  2.0000E-10  5.0000E-10  8.0000E-10
  11    0.000      1.0000E-10  1.0000E-10  1.0000E-10  1.0000E-10  1.0000E-10  1.0000E-10  2.0000E-10  5.0000E-10   0.000    
  12   1.0000E-10  1.0000E-10  1.0000E-10  1.0000E-10  1.0000E-10  1.0000E-10  1.0000E-10  1.0000E-10  2.0000E-10   0.000    
  13   1.0000E-10  1.0000E-10  2.0000E-10  2.0000E-10  2.0000E-10  2.0000E-10  2.0000E-10  1.0000E-10  1.0000E-10   0.000    
  14    0.000      2.0000E-10  5.0000E-10  5.0000E-10  5.0000E-10  5.0000E-10  5.0000E-10  2.0000E-10  1.0000E-10   0.000    
  15    0.000       0.000      8.0000E-10  8.0000E-10  8.0000E-10  8.0000E-10   0.000       0.000       0.000       0.000    

                  ET RATE =  7.500000E-08

 USING ET EXTINCTION DEPTH FROM PREVIOUS STRESS PERIOD. CURRENT PERIOD IS:      10

 USING EXTINCTION WATER CONTENT FROM PREVIOUS STRESS PERIOD. CURRENT PERIOD IS:      10

 USING AIR ENTRY PRESSURE FROM PREVIOUS STRESS PERIOD. CURRENT PERIOD IS:      10

 USING ROOT PRESSURE HEAD FROM PREVIOUS STRESS PERIOD. CURRENT PERIOD IS:      10

 USING ROOT ACTIVITY FROM PREVIOUS STRESS PERIOD. CURRENT PERIOD IS:      10

 PROCESSING AG STRESS PERIOD DATA

 READING AG STRESS PERIOD DATA

 READING IRRIGATION SEGMENT

 READING IRRIGATION WELL

 READING SUPPLEMENTAL WELL

 END PROCESSING AG STRESS PERIOD DATA OPTIONS
 
 SOLVING FOR HEAD 
                                                   Max.-Head-Change                         Max.-Flux-Residual
  Residual-Control   Outer-Iter.   Inner-Iter.     Column Row Layer    Maximum-Head-Change  Column Row Layer    Maximum-Flux-Residual          L2-NORM 
          0                 1           2             5    6     1       0.7820778584E-01       5    6    1         0.4223336633E+01      0.1089892374E+02
          0                 2           2             5    6     1      -0.9421364469E-02       5    6    1        -0.5220459791E+00      0.1319447487E+01
          0                 3           2             5    7     1       0.2361860811E-02       5    6    1         0.1329842371E+00      0.3247662476E+00
          0                 4           2             5    7     1      -0.1091748676E-03       5    6    1        -0.6309549229E-02      0.1539088034E-01
          0                 5           1             4    7     1      -0.1941139253E-04       4    7    1        -0.1100705148E-02      0.2879911735E-02

    ------------------------------------------------
       NWT REQUIRED            5 OUTER ITERATIONS 
       AND A TOTAL OF          9 INNER ITERATIONS.
    ------------------------------------------------

 NO OUTPUT CONTROL FOR STRESS PERIOD   10   TIME STEP    1
 
 SOLVING FOR HEAD 
                                                   Max.-Head-Change                         Max.-Flux-Residual
  Residual-Control   Outer-Iter.   Inner-Iter.     Column Row Layer    Maximum-Head-Change  Column Row Layer    Maximum-Flux-Residual          L2-NORM 
          0                 1           2             5    6     1       0.7532307599E-01       5    6    1         0.4064698761E+01      0.1058403193E+02
          0                 2           2             4    7     1      -0.4182759746E-01       5    6    1        -0.2276463979E+01      0.5583581037E+01
          0                 3           2             4    7     1       0.9323706611E-02       5    6    1         0.5165783822E+00      0.1265979255E+01
          0                 4           2             4    7     1      -0.3709994721E-03       5    6    1        -0.2112810510E-01      0.5195596378E-01
          0                 5           1             4    7     1       0.4574583402E-05       5    6    1         0.2677581783E-03      0.6890381227E-03

    ------------------------------------------------
       NWT REQUIRED            5 OUTER ITERATIONS 
       AND A TOTAL OF          9 INNER ITERATIONS.
    ------------------------------------------------

 NO OUTPUT CONTROL FOR STRESS PERIOD   10   TIME STEP    2
 
 SOLVING FOR HEAD 
                                                   Max.-Head-Change                         Max.-Flux-Residual
  Residual-Control   Outer-Iter.   Inner-Iter.     Column Row Layer    Maximum-Head-Change  Column Row Layer    Maximum-Flux-Residual          L2-NORM 
          0                 1           2             5    7     1       0.7383268600E-01       5    6    1         0.3957130359E+01      0.1037296375E+02
          0                 2           2             5    7     1      -0.7181868970E-02       5    6    1        -0.3957074535E+00      0.1038511418E+01
          0                 3           2             5    7     1       0.4890590241E-03       5    6    1         0.2769958654E-01      0.7269035991E-01
          0                 4           1             5    7     1      -0.1946011914E-04       5    6    1        -0.1132914419E-02      0.2972699761E-02

    ------------------------------------------------
       NWT REQUIRED            4 OUTER ITERATIONS 
       AND A TOTAL OF          7 INNER ITERATIONS.
    ------------------------------------------------

 NO OUTPUT CONTROL FOR STRESS PERIOD   10   TIME STEP    3
 
 SOLVING FOR HEAD 
                                                   Max.-Head-Change                         Max.-Flux-Residual
  Residual-Control   Outer-Iter.   Inner-Iter.     Column Row Layer    Maximum-Head-Change  Column Row Layer    Maximum-Flux-Residual          L2-NORM 
          0                 1           2             5    7     1       0.7234879320E-01       5    7    1         0.3837138327E+01      0.1008855996E+02
          0                 2           2             4    7     1      -0.4176048950E-01       5    7    1        -0.2253711876E+01      0.5540766161E+01
          0                 3           2             4    7     1       0.9319137407E-02       5    7    1         0.5149854718E+00      0.1263115417E+01
          0                 4           2             4    7     1      -0.3708176719E-03       5    7    1        -0.2106296265E-01      0.5183980960E-01
          0                 5           1             4    7     1       0.4572341761E-05       5    7    1         0.2669326168E-03      0.6877984905E-03

    ------------------------------------------------
       NWT REQUIRED            5 OUTER ITERATIONS 
       AND A TOTAL OF          9 INNER ITERATIONS.
    ------------------------------------------------

 NO OUTPUT CONTROL FOR STRESS PERIOD   10   TIME STEP    4
 
 SOLVING FOR HEAD 
                                                   Max.-Head-Change                         Max.-Flux-Residual
  Residual-Control   Outer-Iter.   Inner-Iter.     Column Row Layer    Maximum-Head-Change  Column Row Layer    Maximum-Flux-Residual          L2-NORM 
          0                 1           2             5    7     1       0.7131268071E-01       5    7    1         0.3782162850E+01      0.9900713856E+01
          0                 2           2             5    7     1      -0.6936754401E-02       5    7    1        -0.3782146619E+00      0.9913466359E+00
          0                 3           2             5    7     1       0.4723675014E-03       5    7    1         0.2647505314E-01      0.6938919051E-01
          0                 4           1             5    7     1      -0.1879594859E-04       5    7    1        -0.1082831105E-02      0.2837679688E-02

    ------------------------------------------------
       NWT REQUIRED            4 OUTER ITERATIONS 
       AND A TOTAL OF          7 INNER ITERATIONS.
    ------------------------------------------------

 NO OUTPUT CONTROL FOR STRESS PERIOD   10   TIME STEP    5
 
 SOLVING FOR HEAD 
                                                   Max.-Head-Change                         Max.-Flux-Residual
  Residual-Control   Outer-Iter.   Inner-Iter.     Column Row Layer    Maximum-Head-Change  Column Row Layer    Maximum-Flux-Residual          L2-NORM 
          0                 1           2             4    7     1       0.7026321787E-01       5    7    1         0.3706177274E+01      0.9639409140E+01
          0                 2           2             4    7     1      -0.4167968460E-01       5    7    1        -0.2240616545E+01      0.5501411531E+01
          0                 3           2             4    7     1       0.9313633263E-02       5    7    1         0.5140687681E+00      0.1260468117E+01
          0                 4           2             4    7     1      -0.3705986681E-03       5    7    1        -0.2102546985E-01      0.5173182891E-01
          0                 5           1             4    7     1       0.4569641532E-05       5    7    1         0.2664574674E-03      0.6866942902E-03

    ------------------------------------------------
       NWT REQUIRED            5 OUTER ITERATIONS 
       AND A TOTAL OF          9 INNER ITERATIONS.
    ------------------------------------------------

 NO OUTPUT CONTROL FOR STRESS PERIOD   10   TIME STEP    6
 
 SOLVING FOR HEAD 
                                                   Max.-Head-Change                         Max.-Flux-Residual
  Residual-Control   Outer-Iter.   Inner-Iter.     Column Row Layer    Maximum-Head-Change  Column Row Layer    Maximum-Flux-Residual          L2-NORM 
          0                 1           2             4    7     1       0.6987421737E-01       4    7    1         0.3657807259E+01      0.9471616726E+01
          0                 2           2             4    7     1      -0.6796860012E-02       4    7    1        -0.3657810907E+00      0.9484949653E+00
          0                 3           2             4    7     1       0.4628409300E-03       4    7    1         0.2560468395E-01      0.6638985157E-01
          0                 4           1             4    7     1      -0.1841687370E-04       4    7    1        -0.1047233063E-02      0.2715003292E-02

    ------------------------------------------------
       NWT REQUIRED            4 OUTER ITERATIONS 
       AND A TOTAL OF          7 INNER ITERATIONS.
    ------------------------------------------------

 NO OUTPUT CONTROL FOR STRESS PERIOD   10   TIME STEP    7
 
 SOLVING FOR HEAD 
                                                   Max.-Head-Change                         Max.-Flux-Residual
  Residual-Control   Outer-Iter.   Inner-Iter.     Column Row Layer    Maximum-Head-Change  Column Row Layer    Maximum-Flux-Residual          L2-NORM 
          0                 1           2             4    7     1       0.6931567351E-01       4    7    1         0.3630489037E+01      0.9230473451E+01
          0                 2           2             4    7     1      -0.4158750863E-01       4    7    1        -0.2233049680E+01      0.5465126005E+01
          0                 3           2             4    7     1       0.9307352878E-02       4    7    1         0.5135389610E+00      0.1258016163E+01
          0                 4           2             4    7     1      -0.3703487745E-03       4    7    1        -0.2100380371E-01      0.5163146327E-01
          0                 5           1             4    7     1       0.4566560116E-05       4    7    1         0.2661828773E-03      0.6856505118E-03

    ------------------------------------------------
       NWT REQUIRED            5 OUTER ITERATIONS 
       AND A TOTAL OF          9 INNER ITERATIONS.
    ------------------------------------------------

 NO OUTPUT CONTROL FOR STRESS PERIOD   10   TIME STEP    8
 
 SOLVING FOR HEAD 
                                                   Max.-Head-Change                         Max.-Flux-Residual
  Residual-Control   Outer-Iter.   Inner-Iter.     Column Row Layer    Maximum-Head-Change  Column Row Layer    Maximum-Flux-Residual          L2-NORM 
          0                 1           2             4    7     1       0.6887661317E-01       4    7    1         0.3608577155E+01      0.9080082501E+01
          0                 2           2             4    7     1      -0.6699829923E-02       4    7    1        -0.3608587174E+00      0.9093978093E+00
          0                 3           2             4    7     1       0.4562334465E-03       4    7    1         0.2526011165E-01      0.6365339630E-01
          0                 4           1             4    7     1      -0.1815395599E-04       4    7    1        -0.1033140047E-02      0.2603142034E-02

    ------------------------------------------------
       NWT REQUIRED            4 OUTER ITERATIONS 
       AND A TOTAL OF          7 INNER ITERATIONS.
    ------------------------------------------------

 NO OUTPUT CONTROL FOR STRESS PERIOD   10   TIME STEP    9
 
 SOLVING FOR HEAD 
                                                   Max.-Head-Change                         Max.-Flux-Residual
  Residual-Control   Outer-Iter.   Inner-Iter.     Column Row Layer    Maximum-Head-Change  Column Row Layer    Maximum-Flux-Residual          L2-NORM 
          0                 1           2             4    7     1       0.6827315093E-01       4    7    1         0.3578663456E+01      0.8856619672E+01
          0                 2           2             4    7     1      -0.4148608251E-01       4    7    1        -0.2227867685E+01      0.5431576784E+01
          0                 3           2             4    7     1       0.9300440969E-02       4    7    1         0.5131761889E+00      0.1255740225E+01
          0                 4           2             4    7     1      -0.3700737508E-03       4    7    1        -0.2098896678E-01      0.5153842084E-01
          0                 5           1             4    7     1       0.4563168866E-05       4    7    1         0.2659948493E-03      0.6847255474E-03

    ------------------------------------------------
       NWT REQUIRED            5 OUTER ITERATIONS 
       AND A TOTAL OF          9 INNER ITERATIONS.
    ------------------------------------------------

 NO OUTPUT CONTROL FOR STRESS PERIOD   10   TIME STEP   10
 
 SOLVING FOR HEAD 
                                                   Max.-Head-Change                         Max.-Flux-Residual
  Residual-Control   Outer-Iter.   Inner-Iter.     Column Row Layer    Maximum-Head-Change  Column Row Layer    Maximum-Flux-Residual          L2-NORM 
          0                 1           2             4    7     1       0.6779374171E-01       4    7    1         0.3554408403E+01      0.8721396101E+01
          0                 2           2             4    7     1      -0.6594503660E-02       4    7    1        -0.3554423468E+00      0.8735838752E+00
          0                 3           2             4    7     1       0.4490610440E-03       4    7    1         0.2488096076E-01      0.6114659458E-01
          0                 4           1             4    7     1      -0.1786855939E-04       4    7    1        -0.1017632768E-02      0.2500644057E-02

    ------------------------------------------------
       NWT REQUIRED            4 OUTER ITERATIONS 
       AND A TOTAL OF          7 INNER ITERATIONS.
    ------------------------------------------------

 NO OUTPUT CONTROL FOR STRESS PERIOD   10   TIME STEP   11
 
 SOLVING FOR HEAD 
                                                   Max.-Head-Change                         Max.-Flux-Residual
  Residual-Control   Outer-Iter.   Inner-Iter.     Column Row Layer    Maximum-Head-Change  Column Row Layer    Maximum-Flux-Residual          L2-NORM 
          0                 1           2             4    7     1       0.6715445031E-01       4    7    1         0.3522402305E+01      0.8513504938E+01
          0                 2           2             4    7     1      -0.4137723678E-01       4    7    1        -0.2222242013E+01      0.5400476564E+01
          0                 3           2             4    7     1       0.9293022443E-02       4    7    1         0.5127823650E+00      0.1253621678E+01
          0                 4           2             4    7     1      -0.3697785675E-03       4    7    1        -0.2097285979E-01      0.5145214755E-01
          0                 5           1             4    7     1       0.4559529392E-05       4    7    1         0.2657907239E-03      0.6839466642E-03

    ------------------------------------------------
       NWT REQUIRED            5 OUTER ITERATIONS 
       AND A TOTAL OF          9 INNER ITERATIONS.
    ------------------------------------------------

 NO OUTPUT CONTROL FOR STRESS PERIOD   10   TIME STEP   12
 
 SOLVING FOR HEAD 
                                                   Max.-Head-Change                         Max.-Flux-Residual
  Residual-Control   Outer-Iter.   Inner-Iter.     Column Row Layer    Maximum-Head-Change  Column Row Layer    Maximum-Flux-Residual          L2-NORM 
          0                 1           2             4    7     1       0.6664346660E-01       4    7    1         0.3496290233E+01      0.8391579997E+01
          0                 2           2             4    7     1      -0.6482619198E-02       4    7    1        -0.3496309236E+00      0.8406556852E+00
          0                 3           2             4    7     1       0.4414420692E-03       4    7    1         0.2447415724E-01      0.5884178721E-01
          0                 4           1             4    7     1      -0.1756539411E-04       4    7    1        -0.1000994521E-02      0.2406370159E-02

    ------------------------------------------------
       NWT REQUIRED            4 OUTER ITERATIONS 
       AND A TOTAL OF          7 INNER ITERATIONS.
    ------------------------------------------------

 NO OUTPUT CONTROL FOR STRESS PERIOD   10   TIME STEP   13
 
 SOLVING FOR HEAD 
                                                   Max.-Head-Change                         Max.-Flux-Residual
  Residual-Control   Outer-Iter.   Inner-Iter.     Column Row Layer    Maximum-Head-Change  Column Row Layer    Maximum-Flux-Residual          L2-NORM 
          0                 1           2             4    7     1       0.6597628063E-01       4    7    1         0.3462631771E+01      0.8197454893E+01
          0                 2           2             4    7     1      -0.4126259831E-01       4    7    1        -0.2216265301E+01      0.5371578551E+01
          0                 3           2             4    7     1       0.9285208316E-02       4    7    1         0.5123639733E+00      0.1251648976E+01
          0                 4           2             4    7     1      -0.3694676412E-03       4    7    1        -0.2095574786E-01      0.5137174478E-01
          0                 5           1             4    7     1       0.4555695461E-05       4    7    1         0.2655738751E-03      0.6831543757E-03

    ------------------------------------------------
       NWT REQUIRED            5 OUTER ITERATIONS 
       AND A TOTAL OF          9 INNER ITERATIONS.
    ------------------------------------------------

 NO OUTPUT CONTROL FOR STRESS PERIOD   10   TIME STEP   14
 
 SOLVING FOR HEAD 
                                                   Max.-Head-Change                         Max.-Flux-Residual
  Residual-Control   Outer-Iter.   Inner-Iter.     Column Row Layer    Maximum-Head-Change  Column Row Layer    Maximum-Flux-Residual          L2-NORM 
          0                 1           2             4    7     1       0.6544113122E-01       4    7    1         0.3435074375E+01      0.8087221485E+01
          0                 2           2             4    7     1      -0.6365669273E-02       4    7    1        -0.3435096394E+00      0.8102722549E+00
          0                 3           2             4    7     1       0.4334781682E-03       4    7    1         0.2404566430E-01      0.5671507082E-01
          0                 4           1             4    7     1      -0.1724850297E-04       4    7    1        -0.9834691346E-03      0.2319414984E-02

    ------------------------------------------------
       NWT REQUIRED            4 OUTER ITERATIONS 
       AND A TOTAL OF          7 INNER ITERATIONS.
    ------------------------------------------------

 NO OUTPUT CONTROL FOR STRESS PERIOD   10   TIME STEP   15
 
 SOLVING FOR HEAD 
                                                   Max.-Head-Change                         Max.-Flux-Residual
  Residual-Control   Outer-Iter.   Inner-Iter.     Column Row Layer    Maximum-Head-Change  Column Row Layer    Maximum-Flux-Residual          L2-NORM 
          0                 1           2             4    7     1       0.6475335072E-01       4    7    1         0.3400169203E+01      0.7905339473E+01
          0                 2           2             4    7     1      -0.4114359928E-01       4    7    1        -0.2210019302E+01      0.5344666935E+01
          0                 3           2             4    7     1       0.9277096292E-02       4    7    1         0.5119267357E+00      0.1249807325E+01
          0                 4           2             4    7     1      -0.3691448610E-03       4    7    1        -0.2093786512E-01      0.5129667419E-01
          0                 5           1             4    7     1       0.4551715573E-05       4    7    1         0.2653472388E-03      0.6825360392E-03

    ------------------------------------------------
       NWT REQUIRED            5 OUTER ITERATIONS 
       AND A TOTAL OF          9 INNER ITERATIONS.
    ------------------------------------------------

 NO OUTPUT CONTROL FOR STRESS PERIOD   10   TIME STEP   16
 
 SOLVING FOR HEAD 
                                                   Max.-Head-Change                         Max.-Flux-Residual
  Residual-Control   Outer-Iter.   Inner-Iter.     Column Row Layer    Maximum-Head-Change  Column Row Layer    Maximum-Flux-Residual          L2-NORM 
          0                 1           2             4    7     1       0.6420070939E-01       4    7    1         0.3371537951E+01      0.7805445595E+01
          0                 2           2             4    7     1      -0.6245013500E-02       4    7    1        -0.3371562222E+00      0.7821460710E+00
          0                 3           2             4    7     1       0.4252619239E-03       4    7    1         0.2360092278E-01      0.5474634538E-01
          0                 4           1             4    7     1      -0.1692157133E-04       4    7    1        -0.9652791964E-03      0.2239061734E-02

    ------------------------------------------------
       NWT REQUIRED            4 OUTER ITERATIONS 
       AND A TOTAL OF          7 INNER ITERATIONS.
    ------------------------------------------------

 NO OUTPUT CONTROL FOR STRESS PERIOD   10   TIME STEP   17
 
 SOLVING FOR HEAD 
                                                   Max.-Head-Change                         Max.-Flux-Residual
  Residual-Control   Outer-Iter.   Inner-Iter.     Column Row Layer    Maximum-Head-Change  Column Row Layer    Maximum-Flux-Residual          L2-NORM 
          0                 1           2             4    7     1       0.6349827186E-01       4    7    1         0.3335717289E+01      0.7634482045E+01
          0                 2           2             4    7     1      -0.4102146759E-01       4    7    1        -0.2203574300E+01      0.5319553319E+01
          0                 3           2             4    7     1       0.9268770183E-02       4    7    1         0.5114755716E+00      0.1248085146E+01
          0                 4           2             4    7     1      -0.3688135607E-03       4    7    1        -0.2091941269E-01      0.5122677493E-01
          0                 5           1             4    7     1       0.4547630392E-05       4    7    1         0.2651133877E-03      0.6817865071E-03

    ------------------------------------------------
       NWT REQUIRED            5 OUTER ITERATIONS 
       AND A TOTAL OF          9 INNER ITERATIONS.
    ------------------------------------------------

 NO OUTPUT CONTROL FOR STRESS PERIOD   10   TIME STEP   18
 
 SOLVING FOR HEAD 
                                                   Max.-Head-Change                         Max.-Flux-Residual
  Residual-Control   Outer-Iter.   Inner-Iter.     Column Row Layer    Maximum-Head-Change  Column Row Layer    Maximum-Flux-Residual          L2-NORM 
          0                 1           2             4    7     1       0.6293378628E-01       4    7    1         0.3306327519E+01      0.7543764220E+01
          0                 2           2             4    7     1      -0.6121778898E-02       4    7    1        -0.3306353412E+00      0.7560287277E+00
          0                 3           2             4    7     1       0.4168700802E-03       4    7    1         0.2314445938E-01      0.5291822366E-01
          0                 4           1             4    7     1      -0.1658765213E-04       4    7    1        -0.9466098220E-03      0.2164105923E-02

    ------------------------------------------------
       NWT REQUIRED            4 OUTER ITERATIONS 
       AND A TOTAL OF          7 INNER ITERATIONS.
    ------------------------------------------------

 NO OUTPUT CONTROL FOR STRESS PERIOD   10   TIME STEP   19
 
 SOLVING FOR HEAD 
                                                   Max.-Head-Change                         Max.-Flux-Residual
  Residual-Control   Outer-Iter.   Inner-Iter.     Column Row Layer    Maximum-Head-Change  Column Row Layer    Maximum-Flux-Residual          L2-NORM 
          0                 1           2             4    7     1       0.6222218937E-01       4    7    1         0.3269898535E+01      0.7382587764E+01
          0                 2           2             4    7     1      -0.4089728844E-01       4    7    1        -0.2196992557E+01      0.5296072316E+01
          0                 3           2             4    7     1       0.9260304033E-02       4    7    1         0.5110148388E+00      0.1246470964E+01
          0                 4           2             4    7     1      -0.3684766871E-03       4    7    1        -0.2090056885E-01      0.5116107931E-01
          0                 5           1             4    7     1       0.4543476546E-05       4    7    1         0.2648745760E-03      0.6809966267E-03

    ------------------------------------------------
       NWT REQUIRED            5 OUTER ITERATIONS 
       AND A TOTAL OF          9 INNER ITERATIONS.
    ------------------------------------------------

 NO OUTPUT CONTROL FOR STRESS PERIOD   10   TIME STEP   20
 
 SOLVING FOR HEAD 
                                                   Max.-Head-Change                         Max.-Flux-Residual
  Residual-Control   Outer-Iter.   Inner-Iter.     Column Row Layer    Maximum-Head-Change  Column Row Layer    Maximum-Flux-Residual          L2-NORM 
          0                 1           2             4    7     1       0.6165082714E-01       4    7    1         0.3240028184E+01      0.7300056894E+01
          0                 2           2             4    7     1      -0.6002015632E-02       4    7    1        -0.3243673454E+00      0.7317289257E+00
          0                 3           2             4    7     1       0.4087146071E-03       4    7    1         0.2270569688E-01      0.5121730358E-01
          0                 4           1             4    7     1      -0.1626313816E-04       4    7    1        -0.9286644220E-03      0.2094566510E-02

    ------------------------------------------------
       NWT REQUIRED            4 OUTER ITERATIONS 
       AND A TOTAL OF          7 INNER ITERATIONS.
    ------------------------------------------------

 NO OUTPUT CONTROL FOR STRESS PERIOD   10   TIME STEP   21
 
 SOLVING FOR HEAD 
                                                   Max.-Head-Change                         Max.-Flux-Residual
  Residual-Control   Outer-Iter.   Inner-Iter.     Column Row Layer    Maximum-Head-Change  Column Row Layer    Maximum-Flux-Residual          L2-NORM 
          0                 1           2             4    7     1       0.6091533269E-01       4    7    1         0.3202965493E+01      0.7147656567E+01
          0                 2           2             4    7     1      -0.4076946237E-01       4    7    1        -0.2190299479E+01      0.5274076658E+01
          0                 3           2             4    7     1       0.9251467893E-02       4    7    1         0.5105463131E+00      0.1244956424E+01
          0                 4           2             4    7     1      -0.3681250904E-03       4    7    1        -0.2088140625E-01      0.5109973518E-01
          0                 5           1             4    7     1       0.4539140900E-05       4    7    1         0.2646317175E-03      0.6806309309E-03

    ------------------------------------------------
       NWT REQUIRED            5 OUTER ITERATIONS 
       AND A TOTAL OF          9 INNER ITERATIONS.
    ------------------------------------------------

 NO OUTPUT CONTROL FOR STRESS PERIOD   10   TIME STEP   22
 
 SOLVING FOR HEAD 
                                                   Max.-Head-Change                         Max.-Flux-Residual
  Residual-Control   Outer-Iter.   Inner-Iter.     Column Row Layer    Maximum-Head-Change  Column Row Layer    Maximum-Flux-Residual          L2-NORM 
          0                 1           2             4    7     1       0.6032888216E-01       4    7    1         0.3172161316E+01      0.7072431797E+01
          0                 2           2             4    7     1      -0.5868434492E-02       4    7    1        -0.3172190322E+00      0.7090066477E+00
          0                 3           2             4    7     1       0.3996182205E-03       4    7    1         0.2220531441E-01      0.4962677599E-01
          0                 4           1             4    7     1      -0.1590118458E-04       4    7    1        -0.9081987498E-03      0.2029499984E-02

    ------------------------------------------------
       NWT REQUIRED            4 OUTER ITERATIONS 
       AND A TOTAL OF          7 INNER ITERATIONS.
    ------------------------------------------------

 NO OUTPUT CONTROL FOR STRESS PERIOD   10   TIME STEP   23
 
 SOLVING FOR HEAD 
                                                   Max.-Head-Change                         Max.-Flux-Residual
  Residual-Control   Outer-Iter.   Inner-Iter.     Column Row Layer    Maximum-Head-Change  Column Row Layer    Maximum-Flux-Residual          L2-NORM 
          0                 1           2             4    7     1       0.5959872195E-01       4    7    1         0.3134545358E+01      0.6927919081E+01
          0                 2           2             4    7     1      -0.4064132948E-01       4    7    1        -0.2183457510E+01      0.5253436195E+01
          0                 3           2             4    7     1       0.9242730690E-02       4    7    1         0.5100673702E+00      0.1243532023E+01
          0                 4           2             4    7     1      -0.3677774307E-03       4    7    1        -0.2086181756E-01      0.5104188156E-01
          0                 5           1             4    7     1       0.4534854428E-05       4    7    1         0.2643834823E-03      0.6797444550E-03

    ------------------------------------------------
       NWT REQUIRED            5 OUTER ITERATIONS 
       AND A TOTAL OF          9 INNER ITERATIONS.
    ------------------------------------------------

 NO OUTPUT CONTROL FOR STRESS PERIOD   10   TIME STEP   24
 
 SOLVING FOR HEAD 
                                                   Max.-Head-Change                         Max.-Flux-Residual
  Residual-Control   Outer-Iter.   Inner-Iter.     Column Row Layer    Maximum-Head-Change  Column Row Layer    Maximum-Flux-Residual          L2-NORM 
          0                 1           2             4    7     1       0.5901416041E-01       4    7    1         0.3103753695E+01      0.6859264130E+01
          0                 2           2             4    7     1      -0.5740511300E-02       4    7    1        -0.3103783005E+00      0.6877281824E+00
          0                 3           2             4    7     1       0.3909071204E-03       4    7    1         0.2172646269E-01      0.4813734001E-01
          0                 4           1             4    7     1      -0.1555456209E-04       4    7    1        -0.8886136923E-03      0.1968610892E-02

    ------------------------------------------------
       NWT REQUIRED            4 OUTER ITERATIONS 
       AND A TOTAL OF          7 INNER ITERATIONS.
    ------------------------------------------------

 NO OUTPUT CONTROL FOR STRESS PERIOD   10   TIME STEP   25
 
 SOLVING FOR HEAD 
                                                   Max.-Head-Change                         Max.-Flux-Residual
  Residual-Control   Outer-Iter.   Inner-Iter.     Column Row Layer    Maximum-Head-Change  Column Row Layer    Maximum-Flux-Residual          L2-NORM 
          0                 1           2             4    7     1       0.5828765046E-01       4    7    1         0.3066242797E+01      0.6721922887E+01
          0                 2           2             4    7     1      -0.4051373878E-01       4    7    1        -0.2176627267E+01      0.5234037435E+01
          0                 3           2             4    7     1       0.9234031154E-02       4    7    1         0.5095892502E+00      0.1242189242E+01
          0                 4           2             4    7     1      -0.3674312690E-03       4    7    1        -0.2084226249E-01      0.5098754228E-01
          0                 5           1             4    7     1       0.4530585991E-05       4    7    1         0.2641356527E-03      0.6797987903E-03

    ------------------------------------------------
       NWT REQUIRED            5 OUTER ITERATIONS 
       AND A TOTAL OF          9 INNER ITERATIONS.
    ------------------------------------------------

 NO OUTPUT CONTROL FOR STRESS PERIOD   10   TIME STEP   26
 
 SOLVING FOR HEAD 
                                                   Max.-Head-Change                         Max.-Flux-Residual
  Residual-Control   Outer-Iter.   Inner-Iter.     Column Row Layer    Maximum-Head-Change  Column Row Layer    Maximum-Flux-Residual          L2-NORM 
          0                 1           2             4    7     1       0.5770818733E-01       4    7    1         0.3035640350E+01      0.6659235941E+01
          0                 2           2             4    7     1      -0.5613475797E-02       4    7    1        -0.3035669673E+00      0.6677745855E+00
          0                 3           2             4    7     1       0.3822564727E-03       4    7    1         0.2124966913E-01      0.4674053071E-01
          0                 4           1             4    7     1      -0.1521034472E-04       4    7    1        -0.8691128126E-03      0.1911456814E-02

    ------------------------------------------------
       NWT REQUIRED            4 OUTER ITERATIONS 
       AND A TOTAL OF          7 INNER ITERATIONS.
    ------------------------------------------------

 NO OUTPUT CONTROL FOR STRESS PERIOD   10   TIME STEP   27
 
 SOLVING FOR HEAD 
                                                   Max.-Head-Change                         Max.-Flux-Residual
  Residual-Control   Outer-Iter.   Inner-Iter.     Column Row Layer    Maximum-Head-Change  Column Row Layer    Maximum-Flux-Residual          L2-NORM 
          0                 1           2             4    7     1       0.5698792625E-01       4    7    1         0.2998384518E+01      0.6528425530E+01
          0                 2           2             4    7     1      -0.4038725055E-01       4    7    1        -0.2169841426E+01      0.5215777355E+01
          0                 3           2             4    7     1       0.9225406541E-02       4    7    1         0.5091142401E+00      0.1240922948E+01
          0                 4           2             4    7     1      -0.3670880877E-03       4    7    1        -0.2082283453E-01      0.5093395661E-01
          0                 5           1             4    7     1       0.4526354743E-05       4    7    1         0.2638894580E-03      0.6786561200E-03

    ------------------------------------------------
       NWT REQUIRED            5 OUTER ITERATIONS 
       AND A TOTAL OF          9 INNER ITERATIONS.
    ------------------------------------------------

 NO OUTPUT CONTROL FOR STRESS PERIOD   10   TIME STEP   28
 
 SOLVING FOR HEAD 
                                                   Max.-Head-Change                         Max.-Flux-Residual
  Residual-Control   Outer-Iter.   Inner-Iter.     Column Row Layer    Maximum-Head-Change  Column Row Layer    Maximum-Flux-Residual          L2-NORM 
          0                 1           2             4    7     1       0.5641609137E-01       4    7    1         0.2968115344E+01      0.6471153964E+01
          0                 2           2             4    7     1      -0.5487789814E-02       4    7    1        -0.2968144449E+00      0.6490153532E+00
          0                 3           2             4    7     1       0.3736977259E-03       4    7    1         0.2077699257E-01      0.4542746896E-01
          0                 4           1             4    7     1      -0.1486978393E-04       4    7    1        -0.8497803040E-03      0.1857776436E-02

    ------------------------------------------------
       NWT REQUIRED            4 OUTER ITERATIONS 
       AND A TOTAL OF          7 INNER ITERATIONS.
    ------------------------------------------------

 NO OUTPUT CONTROL FOR STRESS PERIOD   10   TIME STEP   29
 
 SOLVING FOR HEAD 
                                                   Max.-Head-Change                         Max.-Flux-Residual
  Residual-Control   Outer-Iter.   Inner-Iter.     Column Row Layer    Maximum-Head-Change  Column Row Layer    Maximum-Flux-Residual          L2-NORM 
          0                 1           2             4    7     1       0.5570450941E-01       4    7    1         0.2931252973E+01      0.6346307838E+01
          0                 2           2             4    7     1      -0.4026234776E-01       4    7    1        -0.2163128239E+01      0.5198565388E+01
          0                 3           2             4    7     1       0.9216889814E-02       4    7    1         0.5086443170E+00      0.1239728774E+01
          0                 4           2             4    7     1      -0.3667491991E-03       4    7    1        -0.2080361466E-01      0.5088556406E-01
          0                 5           1             4    7     1       0.4522175693E-05       4    7    1         0.2636458701E-03      0.6780002676E-03

    ------------------------------------------------
       NWT REQUIRED            5 OUTER ITERATIONS 
       AND A TOTAL OF          9 INNER ITERATIONS.
    ------------------------------------------------

 NO OUTPUT CONTROL FOR STRESS PERIOD   10   TIME STEP   30



 STREAM LISTING     PERIOD     10   STEP       30

 LAYER ROW COL. STREAM  RCH.  FLOW INTO     FLOW TO   FLOW OUT OF   OVRLND.     DIRECT     STREAM       STREAM     STREAM     STREAM   STREAMBED  STREAMBED
                SEG.NO.  NO.  STRM. RCH.    AQUIFER    STRM. RCH.    RUNOFF     PRECIP       ET          HEAD       DEPTH      WIDTH   CONDCTNC.   GRADIENT

   1    1    1     1     1    1.7625E+01  2.0521E-01   1.7420E+01  0.000E+00  0.000E+00  0.000E+00  1.09411E+03  1.059E+00  1.124E+01  5.056E-02  1.353E+00
   1    2    2     1     2    1.7420E+01  3.1649E-01   1.7103E+01  0.000E+00  0.000E+00  0.000E+00  1.08911E+03  1.054E+00  1.115E+01  7.807E-02  1.351E+00
   1    3    3     1     3    1.7103E+01  2.6863E-01   1.6835E+01  0.000E+00  0.000E+00  0.000E+00  1.08347E+03  1.049E+00  1.106E+01  6.635E-02  1.350E+00
   1    3    4     1     4    1.6835E+01  2.4632E-01   1.6588E+01  0.000E+00  0.000E+00  0.000E+00  1.07845E+03  1.044E+00  1.097E+01  6.091E-02  1.348E+00
   1    4    5     2     1    1.4588E+01  3.0175E-01   1.4286E+01  0.000E+00  0.000E+00  0.000E+00  1.07280E+03  8.686E-01  1.200E+01  7.800E-02  1.290E+00
   1    5    6     2     2    1.4286E+01  2.3154E-01   1.4055E+01  0.000E+00  0.000E+00  0.000E+00  1.06737E+03  8.590E-01  1.200E+01  6.000E-02  1.286E+00
   1    6    6     2     3    1.4055E+01  2.3103E-01   1.3824E+01  0.000E+00  0.000E+00  0.000E+00  1.06264E+03  8.505E-01  1.200E+01  6.000E-02  1.284E+00
   1    7    6     2     4    1.3824E+01  2.3052E-01   1.3593E+01  0.000E+00  0.000E+00  0.000E+00  1.05792E+03  8.421E-01  1.200E+01  6.000E-02  1.281E+00
   1    8    6     2     5    1.3593E+01  2.3001E-01   1.3363E+01  0.000E+00  0.000E+00  0.000E+00  1.05319E+03  8.335E-01  1.200E+01  6.000E-02  1.278E+00
   1    3    5     3     1    2.0000E+00  2.8252E-01   1.7175E+00  0.000E+00  0.000E+00  0.000E+00  1.07555E+03  1.909E+00  9.636E+00  7.227E-02  1.955E+00
   1    3    6     3     2    1.7175E+00  2.4905E-01   1.4684E+00  0.000E+00  0.000E+00  0.000E+00  1.07264E+03  1.727E+00  8.909E+00  6.682E-02  1.864E+00
   1    3    7     3     3    1.4684E+00  1.9718E-01   1.2712E+00  0.000E+00  0.000E+00  0.000E+00  1.06987E+03  1.555E+00  8.218E+00  5.547E-02  1.777E+00
   1    4    8     3     4    1.2712E+00  2.2567E-01   1.0456E+00  0.000E+00  0.000E+00  0.000E+00  1.06682E+03  1.364E+00  7.455E+00  6.709E-02  1.682E+00
   1    5    8     3     5    1.0456E+00  1.5790E-01   8.8768E-01  0.000E+00  0.000E+00  0.000E+00  1.06362E+03  1.164E+00  6.655E+00  4.991E-02  1.582E+00
   1    6    8     3     6    8.8768E-01  5.5980E-02   8.3170E-01  0.000E+00  0.000E+00  0.000E+00  1.06158E+03  1.036E+00  6.145E+00  1.844E-02  1.518E+00
   1    5   10     4     1    1.0000E+01  9.0919E-02   9.9091E+00  0.000E+00  0.000E+00  0.000E+00  1.07836E+03  6.368E-01  1.000E+01  2.500E-02  1.212E+00
   1    5    9     4     2    9.9091E+00  1.8158E-01   9.7275E+00  0.000E+00  0.000E+00  0.000E+00  1.07154E+03  6.315E-01  1.000E+01  5.000E-02  1.211E+00
   1    6    8     4     3    9.7275E+00  1.2689E-01   9.6006E+00  0.000E+00  0.000E+00  0.000E+00  1.06381E+03  6.256E-01  1.000E+01  3.500E-02  1.209E+00
   1    6    8     5     1    1.0432E+01  2.2686E-01   1.0205E+01  0.000E+00  0.000E+00  0.000E+00  1.05868E+03  6.790E-01  1.542E+01  6.166E-02  1.226E+00
   1    7    7     5     2    1.0205E+01  2.7894E-01   9.9265E+00  0.000E+00  0.000E+00  0.000E+00  1.05417E+03  6.732E-01  1.519E+01  7.594E-02  1.224E+00
   1    8    7     5     3    9.9265E+00  1.9221E-01   9.7343E+00  0.000E+00  0.000E+00  0.000E+00  1.04992E+03  6.676E-01  1.497E+01  5.241E-02  1.223E+00
   1    8    6     5     4    9.7343E+00  1.3577E-01   9.5985E+00  0.000E+00  0.000E+00  0.000E+00  1.04691E+03  6.637E-01  1.482E+01  3.706E-02  1.221E+00
   1    9    6     6     1    9.5985E+00  2.2097E-01   9.3776E+00  0.000E+00  0.000E+00  0.000E+00  1.04341E+03  6.828E-01  1.200E+01  6.000E-02  1.228E+00
   1   10    7     6     2    9.3776E+00  2.2039E-01   9.1572E+00  0.000E+00  0.000E+00  0.000E+00  1.03885E+03  6.732E-01  1.200E+01  6.000E-02  1.224E+00
   1   11    7     6     3    9.1572E+00  2.1981E-01   8.9374E+00  0.000E+00  0.000E+00  0.000E+00  1.03430E+03  6.636E-01  1.200E+01  6.000E-02  1.221E+00
   1   12    7     6     4    8.9374E+00  2.1923E-01   8.7181E+00  0.000E+00  0.000E+00  0.000E+00  1.02974E+03  6.539E-01  1.200E+01  6.000E-02  1.218E+00
   1   13    7     6     5    8.7181E+00 -6.6183E-02   8.7843E+00  0.000E+00  0.000E+00  0.000E+00  1.02656E+03  6.504E-01  1.200E+01  2.400E-01 -9.192E-02
   1   14    9     7     1    1.5000E+02  1.3687E+00   1.4863E+02  0.000E+00  0.000E+00  0.000E+00  1.03987E+03  2.288E+00  5.529E+01  5.593E-01  8.157E-01
   1   13    8     7     2    1.4863E+02  1.9187E+00   1.4671E+02  0.000E+00  0.000E+00  0.000E+00  1.03478E+03  2.279E+00  5.526E+01  6.148E-01  1.040E+00
   1   13    7     7     3    1.4671E+02  1.5934E+00   1.4512E+02  0.000E+00  0.000E+00  0.000E+00  1.02969E+03  2.270E+00  5.521E+01  5.584E-01  9.512E-01
   1   13    6     8     1    1.5390E+02  9.4455E-01   1.5296E+02  0.000E+00  0.000E+00  0.000E+00  1.02472E+03  2.841E+00  4.119E+01  4.198E-01  7.501E-01
   1   13    5     8     2    1.5296E+02  2.0819E-01   1.5275E+02  0.000E+00  0.000E+00  0.000E+00  1.01846E+03  2.837E+00  4.113E+01  4.192E-01  1.656E-01
   1   13    4     8     3    1.5275E+02 -2.3931E+00   1.5514E+02  0.000E+00  0.000E+00  0.000E+00  1.01222E+03  2.844E+00  4.124E+01  4.203E+00 -1.898E-01
   1   13    3     8     4    1.5514E+02 -3.6685E+00   1.5881E+02  0.000E+00  0.000E+00  0.000E+00  1.00599E+03  2.865E+00  4.155E+01  4.234E+00 -2.888E-01
   1   13    2     8     5    1.5881E+02 -2.6714E+00   1.6148E+02  0.000E+00  0.000E+00  0.000E+00  9.99762E+02  2.887E+00  4.186E+01  4.266E+00 -2.088E-01
   1   13    1     8     6    1.6148E+02 -2.0281E+00   1.6351E+02  0.000E+00  0.000E+00  0.000E+00  9.94778E+02  2.903E+00  4.209E+01  2.573E+00 -2.627E-01
   1    8    6     9     1    1.3363E+01  0.0000E+00   1.3363E+01  0.000E+00  0.000E+00  0.000E+00  1.08145E+03  2.697E+00  4.000E+00  0.000E+00  1.899E+00
   1    8    5     9     2    1.3363E+01  0.0000E+00   1.3363E+01  0.000E+00  0.000E+00  0.000E+00  1.08095E+03  2.697E+00  4.000E+00  0.000E+00  1.899E+00





UNSATURATED ZONE PACKAGE VOLUMETRIC BUDGET FOR  TIME STEP    30 STRESS PERIOD   10
  ------------------------------------------------------------------------------



     CUMULATIVE VOLUMES      L**3       RATES FOR THIS TIME STEP      L**3/T
     ------------------                 ------------------------

           IN:                                      IN:
           ---                                      ---
        INFILTRATION =   511720155.7495          INFILTRATION =          23.2878

          OUT:                                     OUT:
          ----                                     ----
              UZF ET =   423961912.8175                UZF ET =          12.0675
        UZF RECHARGE =       73224.0000          UZF RECHARGE =       0.0000E+00

            IN - OUT =    87685018.9319              IN - OUT =          11.2203

          STORAGE:                                 STORAGE:
          --------                                 --------
      STORAGE CHANGE =    87684988.4093        STORAGE CHANGE =          11.2203

 PERCENT DISCREPANCY IS DIFFERENCE BETWEEN IN-OUT MINUS CHANGE IN STORAGE
 DIVIDED BY THE AVERAGE OF IN AND OUT TIMES 100

 PERCENT DISCREPANCY =           0.00     PERCENT DISCREPANCY =           0.00






1
  VOLUMETRIC BUDGET FOR AGRICULTURAL FIELDS AT  END OF TIME STEP   30, STRESS PERIOD  10
  ------------------------------------------------------------------------------

     CUMULATIVE VOLUMES      L**3       RATES FOR THIS TIME STEP      L**3/T
     ------------------                 ------------------------

           IN:                                      IN:
           ---                                      ---
               AG WELLS  =   300639168.0000                 AG WELLS  =           9.0766
      DIVERSION SEGMENTS =   190946272.0000        DIVERSION SEGMENTS =          13.3634
           GW IRRIGATION =           0.0000             GW IRRIGATION =           0.0000
           SW IRRIGATION =           0.0000             SW IRRIGATION =           0.0000
        SYSTEM LOSSES GW =           0.0000          SYSTEM LOSSES GW =           0.0000
        SYSTEM LOSSES SW =           0.0000          SYSTEM LOSSES SW =           0.0000

                TOTAL IN =   491585440.0000                  TOTAL IN =          22.4400

          OUT:                                     OUT:
          ----                                     ----
               AG WELLS  =           0.0000                 AG WELLS  =           0.0000
      DIVERSION SEGMENTS =           0.0000        DIVERSION SEGMENTS =           0.0000
           GW IRRIGATION =   300639168.0000             GW IRRIGATION =           9.0766
           SW IRRIGATION =   190950192.0000             SW IRRIGATION =          13.3636
        SYSTEM LOSSES GW =           0.0000          SYSTEM LOSSES GW =           0.0000
        SYSTEM LOSSES SW =           0.0000          SYSTEM LOSSES SW =           0.0000

               TOTAL OUT =   491589376.0000                 TOTAL OUT =          22.4403

                IN - OUT =       -3936.0000                  IN - OUT =      -2.6703E-04

     PERCENT DISCREPANCY =          -0.00         PERCENT DISCREPANCY =          -0.00



1
  VOLUMETRIC BUDGET FOR ENTIRE MODEL AT END OF TIME STEP   30, STRESS PERIOD  10
  ------------------------------------------------------------------------------

     CUMULATIVE VOLUMES      L**3       RATES FOR THIS TIME STEP      L**3/T
     ------------------                 ------------------------

           IN:                                      IN:
           ---                                      ---
             STORAGE     =   366589344.0000               STORAGE     =          13.9861
       CONSTANT HEAD     =           0.0000         CONSTANT HEAD     =           0.0000
     HEAD DEP BOUNDS     =     6839590.0000       HEAD DEP BOUNDS     =           0.2880
      STREAM LEAKAGE     =   281454336.0000        STREAM LEAKAGE     =          11.5770
        UZF RECHARGE     =       73223.9531          UZF RECHARGE     =           0.0000
               GW ET     =           0.0000                 GW ET     =           0.0000
     SURFACE LEAKAGE     =           0.0000       SURFACE LEAKAGE     =           0.0000
           AG WELLS      =           0.0000             AG WELLS      =           0.0000

                TOTAL IN =   654956480.0000                  TOTAL IN =          25.8511

          OUT:                                     OUT:
          ----                                     ----
             STORAGE     =   101857472.0000               STORAGE     =           5.6596
       CONSTANT HEAD     =           0.0000         CONSTANT HEAD     =           0.0000
     HEAD DEP BOUNDS     =     6847855.5000       HEAD DEP BOUNDS     =           0.2875
      STREAM LEAKAGE     =   245616608.0000        STREAM LEAKAGE     =          10.8273
        UZF RECHARGE     =           0.0000          UZF RECHARGE     =           0.0000
               GW ET     =           0.0000                 GW ET     =           0.0000
     SURFACE LEAKAGE     =           0.0000       SURFACE LEAKAGE     =           0.0000
           AG WELLS      =   300639168.0000             AG WELLS      =           9.0766

               TOTAL OUT =   654961088.0000                 TOTAL OUT =          25.8511

                IN - OUT =       -4608.0000                  IN - OUT =       3.0518E-05

     PERCENT DISCREPANCY =          -0.00         PERCENT DISCREPANCY =           0.00






         TIME SUMMARY AT END OF TIME STEP   30 IN STRESS PERIOD   10
                    SECONDS     MINUTES      HOURS       DAYS        YEARS
                    -----------------------------------------------------------
   TIME STEP LENGTH  87667.      1461.1      24.352      1.0147     2.77799E-03
 STRESS PERIOD TIME 2.63000E+06  43833.      730.56      30.440     8.33397E-02
         TOTAL TIME 2.37564E+07 3.95940E+05  6599.0      274.96     0.75279    
1
1
                            STRESS PERIOD NO.   11, LENGTH =   2630000.    
                            -----------------------------------------------

                              NUMBER OF TIME STEPS =    30

                               MULTIPLIER FOR DELT =     1.000

                            INITIAL TIME STEP SIZE =   87666.66    

 REUSING NON-PARAMETER GHB CELLS FROM LAST STRESS PERIOD

      2 GHB CELLS

 REUSING STREAM SEGMENT DATA FROM LAST STRESS PERIOD



            AREAL INFILTRATION RATE
 READING ON UNIT   19 WITH FORMAT: (FREE)              

            1           2           3           4           5           6           7           8           9          10
 ........................................................................................................................
   1   1.0000E-10  2.0000E-10   0.000       0.000       0.000       0.000       0.000       0.000       0.000       0.000    
   2   2.0000E-10  1.0000E-10  2.0000E-10   0.000       0.000      8.0000E-10  8.0000E-10  5.0000E-10   0.000       0.000    
   3    0.000      5.0000E-10  1.0000E-10  1.0000E-10  8.0000E-10  8.0000E-10  5.0000E-10  5.0000E-10   0.000       0.000    
   4   8.0000E-10  5.0000E-10  1.0000E-10  1.0000E-10  1.0000E-10  1.0000E-10  1.0000E-10  1.0000E-10  2.0000E-10   0.000    
   5   8.0000E-10  5.0000E-10  1.0000E-10  1.0000E-10  1.0000E-10  1.0000E-10  1.0000E-10  1.0000E-10  1.0000E-10  1.0000E-10
   6   8.0000E-10  5.0000E-10  5.0000E-10  2.0000E-10  2.0000E-10  1.0000E-10  1.0000E-10  1.0000E-10  1.0000E-10  5.0000E-10
   7   8.0000E-10  5.0000E-10  5.0000E-10  2.0000E-10  2.0000E-10  1.0000E-10  1.0000E-10  2.0000E-10  2.0000E-10   0.000    
   8    0.000      5.0000E-10  5.0000E-10  2.0000E-10  2.0000E-10  1.0000E-10  1.0000E-10  2.0000E-10  5.0000E-10   0.000    
   9    0.000      5.0000E-10  5.0000E-10  2.0000E-10  2.0000E-10  1.0000E-10  1.0000E-10  2.0000E-10  5.0000E-10   0.000    
  10    0.000      5.0000E-10  5.0000E-10  2.0000E-10  2.0000E-10  1.0000E-10  1.0000E-10  2.0000E-10  5.0000E-10  8.0000E-10
  11    0.000      1.0000E-10  1.0000E-10  1.0000E-10  1.0000E-10  1.0000E-10  1.0000E-10  2.0000E-10  5.0000E-10   0.000    
  12   1.0000E-10  1.0000E-10  1.0000E-10  1.0000E-10  1.0000E-10  1.0000E-10  1.0000E-10  1.0000E-10  2.0000E-10   0.000    
  13   1.0000E-10  1.0000E-10  2.0000E-10  2.0000E-10  2.0000E-10  2.0000E-10  2.0000E-10  1.0000E-10  1.0000E-10   0.000    
  14    0.000      2.0000E-10  5.0000E-10  5.0000E-10  5.0000E-10  5.0000E-10  5.0000E-10  2.0000E-10  1.0000E-10   0.000    
  15    0.000       0.000      8.0000E-10  8.0000E-10  8.0000E-10  8.0000E-10   0.000       0.000       0.000       0.000    

                  ET RATE =  5.000000E-09

 USING ET EXTINCTION DEPTH FROM PREVIOUS STRESS PERIOD. CURRENT PERIOD IS:      11

 USING EXTINCTION WATER CONTENT FROM PREVIOUS STRESS PERIOD. CURRENT PERIOD IS:      11

 USING AIR ENTRY PRESSURE FROM PREVIOUS STRESS PERIOD. CURRENT PERIOD IS:      11

 USING ROOT PRESSURE HEAD FROM PREVIOUS STRESS PERIOD. CURRENT PERIOD IS:      11

 USING ROOT ACTIVITY FROM PREVIOUS STRESS PERIOD. CURRENT PERIOD IS:      11

 PROCESSING AG STRESS PERIOD DATA

 READING AG STRESS PERIOD DATA

 READING IRRIGATION SEGMENT

 READING IRRIGATION WELL

 READING SUPPLEMENTAL WELL

 END PROCESSING AG STRESS PERIOD DATA OPTIONS
 
 SOLVING FOR HEAD 
                                                   Max.-Head-Change                         Max.-Flux-Residual
  Residual-Control   Outer-Iter.   Inner-Iter.     Column Row Layer    Maximum-Head-Change  Column Row Layer    Maximum-Flux-Residual          L2-NORM 
          0                 1           2             4    7     1       0.5514222158E-01       4    7    1         0.2901428549E+01      0.6293196683E+01
          0                 2           2             4    7     1      -0.5363876465E-02       4    7    1        -0.2901457253E+00      0.6302371425E+00
          0                 3           2             4    7     1       0.3652596919E-03       4    7    1         0.2031018239E-01      0.4411489021E-01
          0                 4           1             4    7     1      -0.1453402660E-04       4    7    1        -0.8306877412E-03      0.1804202568E-02

    ------------------------------------------------
       NWT REQUIRED            4 OUTER ITERATIONS 
       AND A TOTAL OF          7 INNER ITERATIONS.
    ------------------------------------------------

 NO OUTPUT CONTROL FOR STRESS PERIOD   11   TIME STEP    1
 
 SOLVING FOR HEAD 
                                                   Max.-Head-Change                         Max.-Flux-Residual
  Residual-Control   Outer-Iter.   Inner-Iter.     Column Row Layer    Maximum-Head-Change  Column Row Layer    Maximum-Flux-Residual          L2-NORM 
          0                 1           2             4    7     1       0.5444112810E-01       4    7    1         0.2865066373E+01      0.6175419329E+01
          0                 2           2             4    7     1      -0.5295679461E-02       4    7    1        -0.2865095249E+00      0.6175379129E+00
          0                 3           2             4    7     1       0.3606157257E-03       4    7    1         0.2005564808E-01      0.4322724587E-01
          0                 4           1             4    7     1      -0.1434923863E-04       4    7    1        -0.8202772619E-03      0.1767968475E-02

    ------------------------------------------------
       NWT REQUIRED            4 OUTER ITERATIONS 
       AND A TOTAL OF          7 INNER ITERATIONS.
    ------------------------------------------------

 NO OUTPUT CONTROL FOR STRESS PERIOD   11   TIME STEP    2
 
 SOLVING FOR HEAD 
                                                   Max.-Head-Change                         Max.-Flux-Residual
  Residual-Control   Outer-Iter.   Inner-Iter.     Column Row Layer    Maximum-Head-Change  Column Row Layer    Maximum-Flux-Residual          L2-NORM 
          0                 1           2             4    7     1       0.5373979576E-01       4    7    1         0.2828642978E+01      0.6060849015E+01
          0                 2           2             4    7     1      -0.5227459097E-02       4    7    1        -0.2828671941E+00      0.6060816669E+00
          0                 3           2             4    7     1       0.3559701709E-03       4    7    1         0.1980068475E-01      0.4242540522E-01
          0                 4           1             4    7     1      -0.1416438814E-04       4    7    1        -0.8098492679E-03      0.1735192185E-02

    ------------------------------------------------
       NWT REQUIRED            4 OUTER ITERATIONS 
       AND A TOTAL OF          7 INNER ITERATIONS.
    ------------------------------------------------

 NO OUTPUT CONTROL FOR STRESS PERIOD   11   TIME STEP    3
 
 SOLVING FOR HEAD 
                                                   Max.-Head-Change                         Max.-Flux-Residual
  Residual-Control   Outer-Iter.   Inner-Iter.     Column Row Layer    Maximum-Head-Change  Column Row Layer    Maximum-Flux-Residual          L2-NORM 
          0                 1           2             4    7     1       0.5303909349E-01       4    7    1         0.2792207178E+01      0.5950031803E+01
          0                 2           2             4    7     1      -0.5159299909E-02       4    7    1        -0.2792236152E+00      0.5950006086E+00
          0                 3           2             4    7     1       0.3513287823E-03       4    7    1         0.1954563409E-01      0.4164976205E-01
          0                 4           1             4    7     1      -0.1397970274E-04       4    7    1        -0.7994176747E-03      0.1703472954E-02

    ------------------------------------------------
       NWT REQUIRED            4 OUTER ITERATIONS 
       AND A TOTAL OF          7 INNER ITERATIONS.
    ------------------------------------------------

 NO OUTPUT CONTROL FOR STRESS PERIOD   11   TIME STEP    4
 
 SOLVING FOR HEAD 
                                                   Max.-Head-Change                         Max.-Flux-Residual
  Residual-Control   Outer-Iter.   Inner-Iter.     Column Row Layer    Maximum-Head-Change  Column Row Layer    Maximum-Flux-Residual          L2-NORM 
          0                 1           2             4    7     1       0.5233969381E-01       4    7    1         0.2755796737E+01      0.5842763718E+01
          0                 2           2             4    7     1      -0.5091267324E-02       4    7    1        -0.2755825654E+00      0.5842743491E+00
          0                 3           2             4    7     1       0.3466960164E-03       4    7    1         0.1929076056E-01      0.4089897004E-01
          0                 4           1             4    7     1      -0.1379536078E-04       4    7    1        -0.7889933379E-03      0.1672754889E-02

    ------------------------------------------------
       NWT REQUIRED            4 OUTER ITERATIONS 
       AND A TOTAL OF          7 INNER ITERATIONS.
    ------------------------------------------------

 NO OUTPUT CONTROL FOR STRESS PERIOD   11   TIME STEP    5
 
 SOLVING FOR HEAD 
                                                   Max.-Head-Change                         Max.-Flux-Residual
  Residual-Control   Outer-Iter.   Inner-Iter.     Column Row Layer    Maximum-Head-Change  Column Row Layer    Maximum-Flux-Residual          L2-NORM 
          0                 1           2             4    7     1       0.5164234351E-01       4    7    1         0.2719453813E+01      0.5738863553E+01
          0                 2           2             4    7     1      -0.5023433996E-02       4    7    1        -0.2719482611E+00      0.5738848202E+00
          0                 3           2             4    7     1       0.3420768196E-03       4    7    1         0.1903635926E-01      0.4017170299E-01
          0                 4           1             4    7     1      -0.1361155853E-04       4    7    1        -0.7785883035E-03      0.1642996524E-02

    ------------------------------------------------
       NWT REQUIRED            4 OUTER ITERATIONS 
       AND A TOTAL OF          7 INNER ITERATIONS.
    ------------------------------------------------

 NO OUTPUT CONTROL FOR STRESS PERIOD   11   TIME STEP    6
 
 SOLVING FOR HEAD 
                                                   Max.-Head-Change                         Max.-Flux-Residual
  Residual-Control   Outer-Iter.   Inner-Iter.     Column Row Layer    Maximum-Head-Change  Column Row Layer    Maximum-Flux-Residual          L2-NORM 
          0                 1           2             4    7     1       0.5094786299E-01       4    7    1         0.2683224417E+01      0.5638166963E+01
          0                 2           2             4    7     1      -0.4955879737E-02       4    7    1        -0.2683253042E+00      0.5638155740E+00
          0                 3           2             4    7     1       0.3374766274E-03       4    7    1         0.1878275232E-01      0.3946691309E-01
          0                 4           1             4    7     1      -0.1342851289E-04       4    7    1        -0.7682157766E-03      0.1614196724E-02

    ------------------------------------------------
       NWT REQUIRED            4 OUTER ITERATIONS 
       AND A TOTAL OF          7 INNER ITERATIONS.
    ------------------------------------------------

 NO OUTPUT CONTROL FOR STRESS PERIOD   11   TIME STEP    7
 
 SOLVING FOR HEAD 
                                                   Max.-Head-Change                         Max.-Flux-Residual
  Residual-Control   Outer-Iter.   Inner-Iter.     Column Row Layer    Maximum-Head-Change  Column Row Layer    Maximum-Flux-Residual          L2-NORM 
          0                 1           2             4    7     1       0.5025687182E-01       4    7    1         0.2647143797E+01      0.5540506511E+01
          0                 2           2             4    7     1      -0.4888664824E-02       4    7    1        -0.2647172200E+00      0.5540498920E+00
          0                 3           2             4    7     1       0.3328995439E-03       4    7    1         0.1853018652E-01      0.3878335696E-01
          0                 4           1             4    7     1      -0.1324638633E-04       4    7    1        -0.7578858203E-03      0.1586242668E-02

    ------------------------------------------------
       NWT REQUIRED            4 OUTER ITERATIONS 
       AND A TOTAL OF          7 INNER ITERATIONS.
    ------------------------------------------------

 NO OUTPUT CONTROL FOR STRESS PERIOD   11   TIME STEP    8
 
 SOLVING FOR HEAD 
                                                   Max.-Head-Change                         Max.-Flux-Residual
  Residual-Control   Outer-Iter.   Inner-Iter.     Column Row Layer    Maximum-Head-Change  Column Row Layer    Maximum-Flux-Residual          L2-NORM 
          0                 1           2             4    7     1       0.4956994515E-01       4    7    1         0.2611244077E+01      0.5445753902E+01
          0                 2           2             4    7     1      -0.4821845213E-02       4    7    1        -0.2611272216E+00      0.5445749379E+00
          0                 3           2             4    7     1       0.3283493798E-03       4    7    1         0.1827888677E-01      0.3812011416E-01
          0                 4           1             4    7     1      -0.1306533068E-04       4    7    1        -0.7476076373E-03      0.1559107462E-02

    ------------------------------------------------
       NWT REQUIRED            4 OUTER ITERATIONS 
       AND A TOTAL OF          7 INNER ITERATIONS.
    ------------------------------------------------

 NO OUTPUT CONTROL FOR STRESS PERIOD   11   TIME STEP    9
 
 SOLVING FOR HEAD 
                                                   Max.-Head-Change                         Max.-Flux-Residual
  Residual-Control   Outer-Iter.   Inner-Iter.     Column Row Layer    Maximum-Head-Change  Column Row Layer    Maximum-Flux-Residual          L2-NORM 
          0                 1           2             4    7     1       0.4888746371E-01       4    7    1         0.2575547784E+01      0.5353753260E+01
          0                 2           2             4    7     1      -0.4755457945E-02       4    7    1        -0.2575575620E+00      0.5353751284E+00
          0                 3           2             4    7     1       0.3238286574E-03       4    7    1         0.1802901079E-01      0.3747615476E-01
          0                 4           1             4    7     1      -0.1288544702E-04       4    7    1        -0.7373876931E-03      0.1532772127E-02

    ------------------------------------------------
       NWT REQUIRED            4 OUTER ITERATIONS 
       AND A TOTAL OF          7 INNER ITERATIONS.
    ------------------------------------------------

 NO OUTPUT CONTROL FOR STRESS PERIOD   11   TIME STEP   10
 
 SOLVING FOR HEAD 
                                                   Max.-Head-Change                         Max.-Flux-Residual
  Residual-Control   Outer-Iter.   Inner-Iter.     Column Row Layer    Maximum-Head-Change  Column Row Layer    Maximum-Flux-Residual          L2-NORM 
          0                 1           2             4    7     1       0.4821004207E-01       4    7    1         0.2540089246E+01      0.5264387883E+01
          0                 2           2             4    7     1      -0.4689562807E-02       4    7    1        -0.2540116746E+00      0.5264388346E+00
          0                 3           2             4    7     1       0.3193414477E-03       4    7    1         0.1778079889E-01      0.3685062317E-01
          0                 4           1             4    7     1      -0.1270689666E-04       4    7    1        -0.7272358114E-03      0.1507174062E-02

    ------------------------------------------------
       NWT REQUIRED            4 OUTER ITERATIONS 
       AND A TOTAL OF          7 INNER ITERATIONS.
    ------------------------------------------------

 NO OUTPUT CONTROL FOR STRESS PERIOD   11   TIME STEP   11
 
 SOLVING FOR HEAD 
                                                   Max.-Head-Change                         Max.-Flux-Residual
  Residual-Control   Outer-Iter.   Inner-Iter.     Column Row Layer    Maximum-Head-Change  Column Row Layer    Maximum-Flux-Residual          L2-NORM 
          0                 1           2             4    7     1       0.4753810769E-01       4    7    1         0.2504893033E+01      0.5177537398E+01
          0                 2           2             4    7     1      -0.4624201387E-02       4    7    1        -0.2504920169E+00      0.5177539483E+00
          0                 3           2             4    7     1       0.3148905821E-03       4    7    1         0.1753442307E-01      0.3624267800E-01
          0                 4           1             4    7     1      -0.1252979265E-04       4    7    1        -0.7171590182E-03      0.1482320794E-02

    ------------------------------------------------
       NWT REQUIRED            4 OUTER ITERATIONS 
       AND A TOTAL OF          7 INNER ITERATIONS.
    ------------------------------------------------

 NO OUTPUT CONTROL FOR STRESS PERIOD   11   TIME STEP   12
 
 SOLVING FOR HEAD 
                                                   Max.-Head-Change                         Max.-Flux-Residual
  Residual-Control   Outer-Iter.   Inner-Iter.     Column Row Layer    Maximum-Head-Change  Column Row Layer    Maximum-Flux-Residual          L2-NORM 
          0                 1           2             4    7     1       0.4687204239E-01       4    7    1         0.2469981312E+01      0.5093087909E+01
          0                 2           2             4    7     1      -0.4559410812E-02       4    7    1        -0.2470008058E+00      0.5092986971E+00
          0                 3           2             4    7     1       0.3104785898E-03       4    7    1         0.1729003857E-01      0.3565084187E-01
          0                 4           1             4    7     1      -0.1235423527E-04       4    7    1        -0.7071636735E-03      0.1458116999E-02

    ------------------------------------------------
       NWT REQUIRED            4 OUTER ITERATIONS 
       AND A TOTAL OF          7 INNER ITERATIONS.
    ------------------------------------------------

 NO OUTPUT CONTROL FOR STRESS PERIOD   11   TIME STEP   13
 
 SOLVING FOR HEAD 
                                                   Max.-Head-Change                         Max.-Flux-Residual
  Residual-Control   Outer-Iter.   Inner-Iter.     Column Row Layer    Maximum-Head-Change  Column Row Layer    Maximum-Flux-Residual          L2-NORM 
          0                 1           2             4    7     1       0.4621219557E-01       4    7    1         0.2435373878E+01      0.5010953871E+01
          0                 2           2             4    7     1      -0.4495225123E-02       4    7    1        -0.2435400213E+00      0.5010899373E+00
          0                 3           2             4    7     1       0.3061077879E-03       4    7    1         0.1704778394E-01      0.3507625167E-01
          0                 4           1             4    7     1      -0.1218031684E-04       4    7    1        -0.6972554479E-03      0.1434619702E-02

    ------------------------------------------------
       NWT REQUIRED            4 OUTER ITERATIONS 
       AND A TOTAL OF          7 INNER ITERATIONS.
    ------------------------------------------------

 NO OUTPUT CONTROL FOR STRESS PERIOD   11   TIME STEP   14
 
 SOLVING FOR HEAD 
                                                   Max.-Head-Change                         Max.-Flux-Residual
  Residual-Control   Outer-Iter.   Inner-Iter.     Column Row Layer    Maximum-Head-Change  Column Row Layer    Maximum-Flux-Residual          L2-NORM 
          0                 1           2             4    7     1       0.4555900416E-01       4    7    1         0.2401096144E+01      0.4931029576E+01
          0                 2           2             4    7     1      -0.4431686799E-02       4    7    1        -0.2401122052E+00      0.4931036241E+00
          0                 3           2             4    7     1       0.3017810701E-03       4    7    1         0.1680783711E-01      0.3451720776E-01
          0                 4           1             4    7     1      -0.1200815295E-04       4    7    1        -0.6874416197E-03      0.1411753619E-02

    ------------------------------------------------
       NWT REQUIRED            4 OUTER ITERATIONS 
       AND A TOTAL OF          7 INNER ITERATIONS.
    ------------------------------------------------

 NO OUTPUT CONTROL FOR STRESS PERIOD   11   TIME STEP   15
 
 SOLVING FOR HEAD 
                                                   Max.-Head-Change                         Max.-Flux-Residual
  Residual-Control   Outer-Iter.   Inner-Iter.     Column Row Layer    Maximum-Head-Change  Column Row Layer    Maximum-Flux-Residual          L2-NORM 
          0                 1           2             4    7     1       0.4491247216E-01       4    7    1         0.2367148872E+01      0.4853228755E+01
          0                 2           2             4    7     1      -0.4368796219E-02       4    7    1        -0.2367174336E+00      0.4853236321E+00
          0                 3           2             4    7     1       0.2974984610E-03       4    7    1         0.1657020343E-01      0.3397261908E-01
          0                 4           1             4    7     1      -0.1183774372E-04       4    7    1        -0.6777223762E-03      0.1389480749E-02

    ------------------------------------------------
       NWT REQUIRED            4 OUTER ITERATIONS 
       AND A TOTAL OF          7 INNER ITERATIONS.
    ------------------------------------------------

 NO OUTPUT CONTROL FOR STRESS PERIOD   11   TIME STEP   16
 
 SOLVING FOR HEAD 
                                                   Max.-Head-Change                         Max.-Flux-Residual
  Residual-Control   Outer-Iter.   Inner-Iter.     Column Row Layer    Maximum-Head-Change  Column Row Layer    Maximum-Flux-Residual          L2-NORM 
          0                 1           2             4    7     1       0.4427311565E-01       4    7    1         0.2333561464E+01      0.4777444554E+01
          0                 2           2             4    7     1      -0.4306603601E-02       4    7    1        -0.2333586472E+00      0.4777452945E+00
          0                 3           2             4    7     1       0.2932633809E-03       4    7    1         0.1633508871E-01      0.3344214174E-01
          0                 4           1             4    7     1      -0.1166922593E-04       4    7    1        -0.6681061723E-03      0.1367779623E-02

    ------------------------------------------------
       NWT REQUIRED            4 OUTER ITERATIONS 
       AND A TOTAL OF          7 INNER ITERATIONS.
    ------------------------------------------------

 NO OUTPUT CONTROL FOR STRESS PERIOD   11   TIME STEP   17
 
 SOLVING FOR HEAD 
                                                   Max.-Head-Change                         Max.-Flux-Residual
  Residual-Control   Outer-Iter.   Inner-Iter.     Column Row Layer    Maximum-Head-Change  Column Row Layer    Maximum-Flux-Residual          L2-NORM 
          0                 1           2             4    7     1       0.4364113892E-01       4    7    1         0.2300346081E+01      0.4703615678E+01
          0                 2           2             4    7     1      -0.4245128820E-02       4    7    1        -0.2300370624E+00      0.4703624685E+00
          0                 3           2             4    7     1       0.2890771824E-03       4    7    1         0.1610257809E-01      0.3292535458E-01
          0                 4           1             4    7     1      -0.1150265321E-04       4    7    1        -0.6585964732E-03      0.1346648119E-02

    ------------------------------------------------
       NWT REQUIRED            4 OUTER ITERATIONS 
       AND A TOTAL OF          7 INNER ITERATIONS.
    ------------------------------------------------

 NO OUTPUT CONTROL FOR STRESS PERIOD   11   TIME STEP   18
 
 SOLVING FOR HEAD 
                                                   Max.-Head-Change                         Max.-Flux-Residual
  Residual-Control   Outer-Iter.   Inner-Iter.     Column Row Layer    Maximum-Head-Change  Column Row Layer    Maximum-Flux-Residual          L2-NORM 
          0                 1           2             4    7     1       0.4301658614E-01       4    7    1         0.2267506016E+01      0.4631650539E+01
          0                 2           2             4    7     1      -0.4184376175E-02       4    7    1        -0.2267530086E+00      0.4631660112E+00
          0                 3           2             4    7     1       0.2849401595E-03       4    7    1         0.1587269469E-01      0.3242160694E-01
          0                 4           1             4    7     1      -0.1133803732E-04       4    7    1        -0.6491942258E-03      0.1326042771E-02

    ------------------------------------------------
       NWT REQUIRED            4 OUTER ITERATIONS 
       AND A TOTAL OF          7 INNER ITERATIONS.
    ------------------------------------------------

 NO OUTPUT CONTROL FOR STRESS PERIOD   11   TIME STEP   19
 
 SOLVING FOR HEAD 
                                                   Max.-Head-Change                         Max.-Flux-Residual
  Residual-Control   Outer-Iter.   Inner-Iter.     Column Row Layer    Maximum-Head-Change  Column Row Layer    Maximum-Flux-Residual          L2-NORM 
          0                 1           2             4    7     1       0.4239961807E-01       4    7    1         0.2235050858E+01      0.4561477874E+01
          0                 2           2             4    7     1      -0.4124361306E-02       4    7    1        -0.2235074449E+00      0.4561487816E+00
          0                 3           2             4    7     1       0.2808533760E-03       4    7    1         0.1564550557E-01      0.3193040712E-01
          0                 4           1             4    7     1      -0.1117542016E-04       4    7    1        -0.6399021720E-03      0.1305958234E-02

    ------------------------------------------------
       NWT REQUIRED            4 OUTER ITERATIONS 
       AND A TOTAL OF          7 INNER ITERATIONS.
    ------------------------------------------------

 NO OUTPUT CONTROL FOR STRESS PERIOD   11   TIME STEP   20
 
 SOLVING FOR HEAD 
                                                   Max.-Head-Change                         Max.-Flux-Residual
  Residual-Control   Outer-Iter.   Inner-Iter.     Column Row Layer    Maximum-Head-Change  Column Row Layer    Maximum-Flux-Residual          L2-NORM 
          0                 1           2             4    7     1       0.4179063468E-01       4    7    1         0.2203003546E+01      0.4493041675E+01
          0                 2           2             4    7     1      -0.4065123125E-02       4    7    1        -0.2203026656E+00      0.4493051887E+00
          0                 3           2             4    7     1       0.2768194829E-03       4    7    1         0.1542117139E-01      0.3145135493E-01
          0                 4           1             4    7     1      -0.1101490823E-04       4    7    1        -0.6307269052E-03      0.1286360792E-02

    ------------------------------------------------
       NWT REQUIRED            4 OUTER ITERATIONS 
       AND A TOTAL OF          7 INNER ITERATIONS.
    ------------------------------------------------

 NO OUTPUT CONTROL FOR STRESS PERIOD   11   TIME STEP   21
 
 SOLVING FOR HEAD 
                                                   Max.-Head-Change                         Max.-Flux-Residual
  Residual-Control   Outer-Iter.   Inner-Iter.     Column Row Layer    Maximum-Head-Change  Column Row Layer    Maximum-Flux-Residual          L2-NORM 
          0                 1           2             4    7     1       0.4118947085E-01       4    7    1         0.2171355612E+01      0.4426263829E+01
          0                 2           2             4    7     1      -0.4006645568E-02       4    7    1        -0.2171378237E+00      0.4426274250E+00
          0                 3           2             4    7     1       0.2728373845E-03       4    7    1         0.1519963281E-01      0.3098391705E-01
          0                 4           1             4    7     1      -0.1085645627E-04       4    7    1        -0.6216659494E-03      0.1267244435E-02

    ------------------------------------------------
       NWT REQUIRED            4 OUTER ITERATIONS 
       AND A TOTAL OF          7 INNER ITERATIONS.
    ------------------------------------------------

 NO OUTPUT CONTROL FOR STRESS PERIOD   11   TIME STEP   22
 
 SOLVING FOR HEAD 
                                                   Max.-Head-Change                         Max.-Flux-Residual
  Residual-Control   Outer-Iter.   Inner-Iter.     Column Row Layer    Maximum-Head-Change  Column Row Layer    Maximum-Flux-Residual          L2-NORM 
          0                 1           2             4    7     1       0.4059648269E-01       4    7    1         0.2140127705E+01      0.4361090714E+01
          0                 2           2             4    7     1      -0.3948963281E-02       4    7    1        -0.2140149845E+00      0.4361101200E+00
          0                 3           2             4    7     1       0.2689094413E-03       4    7    1         0.1498103443E-01      0.3052770560E-01
          0                 4           1             4    7     1      -0.1070015927E-04       4    7    1        -0.6127252395E-03      0.1248583327E-02

    ------------------------------------------------
       NWT REQUIRED            4 OUTER ITERATIONS 
       AND A TOTAL OF          7 INNER ITERATIONS.
    ------------------------------------------------

 NO OUTPUT CONTROL FOR STRESS PERIOD   11   TIME STEP   23
 
 SOLVING FOR HEAD 
                                                   Max.-Head-Change                         Max.-Flux-Residual
  Residual-Control   Outer-Iter.   Inner-Iter.     Column Row Layer    Maximum-Head-Change  Column Row Layer    Maximum-Flux-Residual          L2-NORM 
          0                 1           2             4    7     1       0.4001146554E-01       4    7    1         0.2109309077E+01      0.4297465332E+01
          0                 2           2             4    7     1      -0.3892056357E-02       4    7    1        -0.2109330732E+00      0.4297475955E+00
          0                 3           2             4    7     1       0.2650342980E-03       4    7    1         0.1476530101E-01      0.3008232773E-01
          0                 4           1             4    7     1      -0.1054596404E-04       4    7    1        -0.6039017485E-03      0.1230367550E-02

    ------------------------------------------------
       NWT REQUIRED            4 OUTER ITERATIONS 
       AND A TOTAL OF          7 INNER ITERATIONS.
    ------------------------------------------------

 NO OUTPUT CONTROL FOR STRESS PERIOD   11   TIME STEP   24
 
 SOLVING FOR HEAD 
                                                   Max.-Head-Change                         Max.-Flux-Residual
  Residual-Control   Outer-Iter.   Inner-Iter.     Column Row Layer    Maximum-Head-Change  Column Row Layer    Maximum-Flux-Residual          L2-NORM 
          0                 1           2             4    7     1       0.3943474219E-01       4    7    1         0.2078918331E+01      0.4235333173E+01
          0                 2           2             4    7     1      -0.3835956195E-02       4    7    1        -0.2078939504E+00      0.4235343811E+00
          0                 3           2             4    7     1       0.2612140919E-03       4    7    1         0.1455256278E-01      0.2964740635E-01
          0                 4           1             4    7     1      -0.1039395462E-04       4    7    1        -0.5952007327E-03      0.1212587702E-02

    ------------------------------------------------
       NWT REQUIRED            4 OUTER ITERATIONS 
       AND A TOTAL OF          7 INNER ITERATIONS.
    ------------------------------------------------

 NO OUTPUT CONTROL FOR STRESS PERIOD   11   TIME STEP   25
 
 SOLVING FOR HEAD 
                                                   Max.-Head-Change                         Max.-Flux-Residual
  Residual-Control   Outer-Iter.   Inner-Iter.     Column Row Layer    Maximum-Head-Change  Column Row Layer    Maximum-Flux-Residual          L2-NORM 
          0                 1           2             4    7     1       0.3886633857E-01       4    7    1         0.2048957597E+01      0.4174640686E+01
          0                 2           2             4    7     1      -0.3780665320E-02       4    7    1        -0.2048978290E+00      0.4174651301E+00
          0                 3           2             4    7     1       0.2574489950E-03       4    7    1         0.1434283464E-01      0.2922256063E-01
          0                 4           1             4    7     1      -0.1024413758E-04       4    7    1        -0.5866228405E-03      0.1195202988E-02

    ------------------------------------------------
       NWT REQUIRED            4 OUTER ITERATIONS 
       AND A TOTAL OF          7 INNER ITERATIONS.
    ------------------------------------------------

 NO OUTPUT CONTROL FOR STRESS PERIOD   11   TIME STEP   26
 
 SOLVING FOR HEAD 
                                                   Max.-Head-Change                         Max.-Flux-Residual
  Residual-Control   Outer-Iter.   Inner-Iter.     Column Row Layer    Maximum-Head-Change  Column Row Layer    Maximum-Flux-Residual          L2-NORM 
          0                 1           2             4    7     1       0.3830613173E-01       4    7    1         0.2019420913E+01      0.4115339784E+01
          0                 2           2             4    7     1      -0.3726171773E-02       4    7    1        -0.2019441130E+00      0.4115350284E+00
          0                 3           2             4    7     1       0.2537381933E-03       4    7    1         0.1413607487E-01      0.2880745530E-01
          0                 4           1             4    7     1      -0.1009648137E-04       4    7    1        -0.5781663604E-03      0.1178230201E-02

    ------------------------------------------------
       NWT REQUIRED            4 OUTER ITERATIONS 
       AND A TOTAL OF          7 INNER ITERATIONS.
    ------------------------------------------------

 NO OUTPUT CONTROL FOR STRESS PERIOD   11   TIME STEP   27
 
 SOLVING FOR HEAD 
                                                   Max.-Head-Change                         Max.-Flux-Residual
  Residual-Control   Outer-Iter.   Inner-Iter.     Column Row Layer    Maximum-Head-Change  Column Row Layer    Maximum-Flux-Residual          L2-NORM 
          0                 1           2             4    7     1       0.3775412665E-01       4    7    1         0.1990309211E+01      0.4057377091E+01
          0                 2           2             4    7     1      -0.3672476041E-02       4    7    1        -0.1990328956E+00      0.4057387451E+00
          0                 3           2             4    7     1       0.2500817197E-03       4    7    1         0.1393229002E-01      0.2840171392E-01
          0                 4           1             4    7     1      -0.9950987018E-05       4    7    1        -0.5698315385E-03      0.1161632695E-02

    ------------------------------------------------
       NWT REQUIRED            4 OUTER ITERATIONS 
       AND A TOTAL OF          7 INNER ITERATIONS.
    ------------------------------------------------

 NO OUTPUT CONTROL FOR STRESS PERIOD   11   TIME STEP   28
 
 SOLVING FOR HEAD 
                                                   Max.-Head-Change                         Max.-Flux-Residual
  Residual-Control   Outer-Iter.   Inner-Iter.     Column Row Layer    Maximum-Head-Change  Column Row Layer    Maximum-Flux-Residual          L2-NORM 
          0                 1           2             4    7     1       0.3721058268E-01       4    7    1         0.1961637362E+01      0.4000716190E+01
          0                 2           2             4    7     1      -0.3619603351E-02       4    7    1        -0.1961656641E+00      0.4000726441E+00
          0                 3           2             4    7     1       0.2464812923E-03       4    7    1         0.1373158417E-01      0.2800508842E-01
          0                 4           1             4    7     1      -0.9807722348E-05       4    7    1        -0.5616226586E-03      0.1145409773E-02

    ------------------------------------------------
       NWT REQUIRED            4 OUTER ITERATIONS 
       AND A TOTAL OF          7 INNER ITERATIONS.
    ------------------------------------------------

 NO OUTPUT CONTROL FOR STRESS PERIOD   11   TIME STEP   29
 
 SOLVING FOR HEAD 
                                                   Max.-Head-Change                         Max.-Flux-Residual
  Residual-Control   Outer-Iter.   Inner-Iter.     Column Row Layer    Maximum-Head-Change  Column Row Layer    Maximum-Flux-Residual          L2-NORM 
          0                 1           2             4    7     1       0.3667519881E-01       4    7    1         0.1933389587E+01      0.3945307916E+01
          0                 2           2             4    7     1      -0.3567524425E-02       4    7    1        -0.1933408405E+00      0.3945317994E+00
          0                 3           2             4    7     1       0.2429349172E-03       4    7    1         0.1353384687E-01      0.2761722843E-01
          0                 4           1             4    7     1      -0.9666609181E-05       4    7    1        -0.5535351966E-03      0.1129547018E-02

    ------------------------------------------------
       NWT REQUIRED            4 OUTER ITERATIONS 
       AND A TOTAL OF          7 INNER ITERATIONS.
    ------------------------------------------------

 NO OUTPUT CONTROL FOR STRESS PERIOD   11   TIME STEP   30



 STREAM LISTING     PERIOD     11   STEP       30

 LAYER ROW COL. STREAM  RCH.  FLOW INTO     FLOW TO   FLOW OUT OF   OVRLND.     DIRECT     STREAM       STREAM     STREAM     STREAM   STREAMBED  STREAMBED
                SEG.NO.  NO.  STRM. RCH.    AQUIFER    STRM. RCH.    RUNOFF     PRECIP       ET          HEAD       DEPTH      WIDTH   CONDCTNC.   GRADIENT

   1    1    1     1     1    1.3125E+01  1.7336E-01   1.2952E+01  0.000E+00  0.000E+00  0.000E+00  1.09402E+03  9.718E-01  9.699E+00  4.365E-02  1.324E+00
   1    2    2     1     2    1.2952E+01  2.6707E-01   1.2684E+01  0.000E+00  0.000E+00  0.000E+00  1.08903E+03  9.671E-01  9.617E+00  6.732E-02  1.322E+00
   1    3    3     1     3    1.2684E+01  2.2641E-01   1.2458E+01  0.000E+00  0.000E+00  0.000E+00  1.08338E+03  9.616E-01  9.525E+00  5.715E-02  1.321E+00
   1    3    4     1     4    1.2458E+01  2.0737E-01   1.2251E+01  0.000E+00  0.000E+00  0.000E+00  1.07836E+03  9.568E-01  9.443E+00  5.241E-02  1.319E+00
   1    4    5     2     1    1.0251E+01  2.8870E-01   9.9620E+00  0.000E+00  0.000E+00  0.000E+00  1.07264E+03  7.013E-01  1.200E+01  7.800E-02  1.234E+00
   1    5    6     2     2    9.9620E+00  2.2144E-01   9.7406E+00  0.000E+00  0.000E+00  0.000E+00  1.06720E+03  6.906E-01  1.200E+01  6.000E-02  1.230E+00
   1    6    6     2     3    9.7406E+00  2.2088E-01   9.5197E+00  0.000E+00  0.000E+00  0.000E+00  1.06247E+03  6.813E-01  1.200E+01  6.000E-02  1.227E+00
   1    7    6     2     4    9.5197E+00  2.2031E-01   9.2994E+00  0.000E+00  0.000E+00  0.000E+00  1.05775E+03  6.719E-01  1.200E+01  6.000E-02  1.224E+00
   1    8    6     2     5    9.2994E+00  2.1974E-01   9.0796E+00  0.000E+00  0.000E+00  0.000E+00  1.05302E+03  6.624E-01  1.200E+01  6.000E-02  1.221E+00
   1    3    5     3     1    2.0000E+00  2.8252E-01   1.7175E+00  0.000E+00  0.000E+00  0.000E+00  1.07555E+03  1.909E+00  9.636E+00  7.227E-02  1.955E+00
   1    3    6     3     2    1.7175E+00  2.4905E-01   1.4684E+00  0.000E+00  0.000E+00  0.000E+00  1.07264E+03  1.727E+00  8.909E+00  6.682E-02  1.864E+00
   1    3    7     3     3    1.4684E+00  1.9718E-01   1.2712E+00  0.000E+00  0.000E+00  0.000E+00  1.06987E+03  1.555E+00  8.218E+00  5.547E-02  1.777E+00
   1    4    8     3     4    1.2712E+00  2.2567E-01   1.0456E+00  0.000E+00  0.000E+00  0.000E+00  1.06682E+03  1.364E+00  7.455E+00  6.709E-02  1.682E+00
   1    5    8     3     5    1.0456E+00  1.5790E-01   8.8768E-01  0.000E+00  0.000E+00  0.000E+00  1.06362E+03  1.164E+00  6.655E+00  4.991E-02  1.582E+00
   1    6    8     3     6    8.8768E-01  5.5980E-02   8.3170E-01  0.000E+00  0.000E+00  0.000E+00  1.06158E+03  1.036E+00  6.145E+00  1.844E-02  1.518E+00
   1    5   10     4     1    1.0000E+01  9.0919E-02   9.9091E+00  0.000E+00  0.000E+00  0.000E+00  1.07836E+03  6.368E-01  1.000E+01  2.500E-02  1.212E+00
   1    5    9     4     2    9.9091E+00  1.8158E-01   9.7275E+00  0.000E+00  0.000E+00  0.000E+00  1.07154E+03  6.315E-01  1.000E+01  5.000E-02  1.211E+00
   1    6    8     4     3    9.7275E+00  1.2689E-01   9.6006E+00  0.000E+00  0.000E+00  0.000E+00  1.06381E+03  6.256E-01  1.000E+01  3.500E-02  1.209E+00
   1    6    8     5     1    1.0432E+01  2.2686E-01   1.0205E+01  0.000E+00  0.000E+00  0.000E+00  1.05868E+03  6.790E-01  1.542E+01  6.166E-02  1.226E+00
   1    7    7     5     2    1.0205E+01  2.7894E-01   9.9265E+00  0.000E+00  0.000E+00  0.000E+00  1.05417E+03  6.732E-01  1.519E+01  7.594E-02  1.224E+00
   1    8    7     5     3    9.9265E+00  1.9221E-01   9.7343E+00  0.000E+00  0.000E+00  0.000E+00  1.04992E+03  6.676E-01  1.497E+01  5.241E-02  1.223E+00
   1    8    6     5     4    9.7343E+00  1.3577E-01   9.5985E+00  0.000E+00  0.000E+00  0.000E+00  1.04691E+03  6.637E-01  1.482E+01  3.706E-02  1.221E+00
   1    9    6     6     1    1.8678E+01  2.4127E-01   1.8437E+01  0.000E+00  0.000E+00  0.000E+00  1.04375E+03  1.021E+00  1.200E+01  6.000E-02  1.340E+00
   1   10    7     6     2    1.8437E+01  2.4079E-01   1.8196E+01  0.000E+00  0.000E+00  0.000E+00  1.03919E+03  1.013E+00  1.200E+01  6.000E-02  1.338E+00
   1   11    7     6     3    1.8196E+01  2.4031E-01   1.7956E+01  0.000E+00  0.000E+00  0.000E+00  1.03464E+03  1.005E+00  1.200E+01  6.000E-02  1.335E+00
   1   12    7     6     4    1.7956E+01  2.3983E-01   1.7716E+01  0.000E+00  0.000E+00  0.000E+00  1.03009E+03  9.971E-01  1.200E+01  6.000E-02  1.332E+00
   1   13    7     6     5    1.7716E+01  1.4109E-03   1.7715E+01  0.000E+00  0.000E+00  0.000E+00  1.02690E+03  9.931E-01  1.200E+01  2.400E-02  1.960E-02
   1   14    9     7     1    1.5000E+02  1.3690E+00   1.4863E+02  0.000E+00  0.000E+00  0.000E+00  1.03987E+03  2.288E+00  5.529E+01  5.593E-01  8.159E-01
   1   13    8     7     2    1.4863E+02  1.9186E+00   1.4671E+02  0.000E+00  0.000E+00  0.000E+00  1.03478E+03  2.279E+00  5.526E+01  6.148E-01  1.040E+00
   1   13    7     7     3    1.4671E+02  1.5889E+00   1.4512E+02  0.000E+00  0.000E+00  0.000E+00  1.02969E+03  2.270E+00  5.521E+01  5.584E-01  9.485E-01
   1   13    6     8     1    1.6284E+02  9.9265E-01   1.6185E+02  0.000E+00  0.000E+00  0.000E+00  1.02478E+03  2.902E+00  4.207E+01  4.287E-01  7.718E-01
   1   13    5     8     2    1.6185E+02  2.4281E-01   1.6160E+02  0.000E+00  0.000E+00  0.000E+00  1.01852E+03  2.897E+00  4.201E+01  4.281E-01  1.890E-01
   1   13    4     8     3    1.6160E+02 -2.2078E+00   1.6381E+02  0.000E+00  0.000E+00  0.000E+00  1.01228E+03  2.904E+00  4.211E+01  4.291E+00 -1.715E-01
   1   13    3     8     4    1.6381E+02 -3.5321E+00   1.6734E+02  0.000E+00  0.000E+00  0.000E+00  1.00605E+03  2.923E+00  4.239E+01  4.319E+00 -2.726E-01
   1   13    2     8     5    1.6734E+02 -2.5372E+00   1.6988E+02  0.000E+00  0.000E+00  0.000E+00  9.99818E+02  2.943E+00  4.268E+01  4.349E+00 -1.945E-01
   1   13    1     8     6    1.6988E+02 -1.9572E+00   1.7184E+02  0.000E+00  0.000E+00  0.000E+00  9.94833E+02  2.958E+00  4.289E+01  2.622E+00 -2.488E-01
   1    8    6     9     1    0.0000E+00  0.0000E+00   0.0000E+00  0.000E+00  0.000E+00  0.000E+00  1.07875E+03  0.000E+00  4.000E+00  0.000E+00  1.000E+00
   1    8    5     9     2    0.0000E+00  0.0000E+00   0.0000E+00  0.000E+00  0.000E+00  0.000E+00  1.07825E+03  0.000E+00  4.000E+00  0.000E+00  1.000E+00





UNSATURATED ZONE PACKAGE VOLUMETRIC BUDGET FOR  TIME STEP    30 STRESS PERIOD   11
  ------------------------------------------------------------------------------



     CUMULATIVE VOLUMES      L**3       RATES FOR THIS TIME STEP      L**3/T
     ------------------                 ------------------------

           IN:                                      IN:
           ---                                      ---
        INFILTRATION =   513949080.6222          INFILTRATION =           0.8475

          OUT:                                     OUT:
          ----                                     ----
              UZF ET =   426582063.9269                UZF ET =           0.8475
        UZF RECHARGE =       73224.0000          UZF RECHARGE =       0.0000E+00

            IN - OUT =    87293792.6953              IN - OUT =       0.0000E+00

          STORAGE:                                 STORAGE:
          --------                                 --------
      STORAGE CHANGE =    87293761.4073        STORAGE CHANGE =       1.2762E-13

 PERCENT DISCREPANCY IS DIFFERENCE BETWEEN IN-OUT MINUS CHANGE IN STORAGE
 DIVIDED BY THE AVERAGE OF IN AND OUT TIMES 100

 PERCENT DISCREPANCY =           0.00     PERCENT DISCREPANCY =           0.00






1
  VOLUMETRIC BUDGET FOR AGRICULTURAL FIELDS AT  END OF TIME STEP   30, STRESS PERIOD  11
  ------------------------------------------------------------------------------

     CUMULATIVE VOLUMES      L**3       RATES FOR THIS TIME STEP      L**3/T
     ------------------                 ------------------------

           IN:                                      IN:
           ---                                      ---
               AG WELLS  =   300639168.0000                 AG WELLS  =           0.0000
      DIVERSION SEGMENTS =   190946272.0000        DIVERSION SEGMENTS =           0.0000
           GW IRRIGATION =           0.0000             GW IRRIGATION =           0.0000
           SW IRRIGATION =           0.0000             SW IRRIGATION =           0.0000
        SYSTEM LOSSES GW =           0.0000          SYSTEM LOSSES GW =           0.0000
        SYSTEM LOSSES SW =           0.0000          SYSTEM LOSSES SW =           0.0000

                TOTAL IN =   491585440.0000                  TOTAL IN =           0.0000

          OUT:                                     OUT:
          ----                                     ----
               AG WELLS  =           0.0000                 AG WELLS  =           0.0000
      DIVERSION SEGMENTS =           0.0000        DIVERSION SEGMENTS =           0.0000
           GW IRRIGATION =   300639168.0000             GW IRRIGATION =           0.0000
           SW IRRIGATION =   190950192.0000             SW IRRIGATION =           0.0000
        SYSTEM LOSSES GW =           0.0000          SYSTEM LOSSES GW =           0.0000
        SYSTEM LOSSES SW =           0.0000          SYSTEM LOSSES SW =           0.0000

               TOTAL OUT =   491589376.0000                 TOTAL OUT =           0.0000

                IN - OUT =       -3936.0000                  IN - OUT =           0.0000

     PERCENT DISCREPANCY =          -0.00         PERCENT DISCREPANCY =           0.00



1
  VOLUMETRIC BUDGET FOR ENTIRE MODEL AT END OF TIME STEP   30, STRESS PERIOD  11
  ------------------------------------------------------------------------------

     CUMULATIVE VOLUMES      L**3       RATES FOR THIS TIME STEP      L**3/T
     ------------------                 ------------------------

           IN:                                      IN:
           ---                                      ---
             STORAGE     =   394910464.0000               STORAGE     =           9.1122
       CONSTANT HEAD     =           0.0000         CONSTANT HEAD     =           0.0000
     HEAD DEP BOUNDS     =     7597053.0000       HEAD DEP BOUNDS     =           0.2880
      STREAM LEAKAGE     =   311765152.0000        STREAM LEAKAGE     =          11.5224
        UZF RECHARGE     =       73223.9531          UZF RECHARGE     =           0.0000
               GW ET     =           0.0000                 GW ET     =           0.0000
     SURFACE LEAKAGE     =           0.0000       SURFACE LEAKAGE     =           0.0000
           AG WELLS      =           0.0000             AG WELLS      =           0.0000

                TOTAL IN =   714345856.0000                  TOTAL IN =          20.9226

          OUT:                                     OUT:
          ----                                     ----
             STORAGE     =   133681160.0000               STORAGE     =          10.4003
       CONSTANT HEAD     =           0.0000         CONSTANT HEAD     =           0.0000
     HEAD DEP BOUNDS     =     7604835.0000       HEAD DEP BOUNDS     =           0.2880
      STREAM LEAKAGE     =   272425312.0000        STREAM LEAKAGE     =          10.2343
        UZF RECHARGE     =           0.0000          UZF RECHARGE     =           0.0000
               GW ET     =           0.0000                 GW ET     =           0.0000
     SURFACE LEAKAGE     =           0.0000       SURFACE LEAKAGE     =           0.0000
           AG WELLS      =   300639168.0000             AG WELLS      =           0.0000

               TOTAL OUT =   714350464.0000                 TOTAL OUT =          20.9226

                IN - OUT =       -4608.0000                  IN - OUT =       9.5367E-06

     PERCENT DISCREPANCY =          -0.00         PERCENT DISCREPANCY =           0.00






         TIME SUMMARY AT END OF TIME STEP   30 IN STRESS PERIOD   11
                    SECONDS     MINUTES      HOURS       DAYS        YEARS
                    -----------------------------------------------------------
   TIME STEP LENGTH  87667.      1461.1      24.352      1.0147     2.77799E-03
 STRESS PERIOD TIME 2.63000E+06  43833.      730.56      30.440     8.33397E-02
         TOTAL TIME 2.63864E+07 4.39773E+05  7329.5      305.40     0.83613    
1
1
                            STRESS PERIOD NO.   12, LENGTH =   2630000.    
                            -----------------------------------------------

                              NUMBER OF TIME STEPS =    30

                               MULTIPLIER FOR DELT =     1.000

                            INITIAL TIME STEP SIZE =   87666.66    

 REUSING NON-PARAMETER GHB CELLS FROM LAST STRESS PERIOD

      2 GHB CELLS

 REUSING STREAM SEGMENT DATA FROM LAST STRESS PERIOD



            AREAL INFILTRATION RATE
 READING ON UNIT   19 WITH FORMAT: (FREE)              

            1           2           3           4           5           6           7           8           9          10
 ........................................................................................................................
   1   1.0000E-10  2.0000E-10   0.000       0.000       0.000       0.000       0.000       0.000       0.000       0.000    
   2   2.0000E-10  1.0000E-10  2.0000E-10   0.000       0.000      8.0000E-10  8.0000E-10  5.0000E-10   0.000       0.000    
   3    0.000      5.0000E-10  1.0000E-10  1.0000E-10  8.0000E-10  8.0000E-10  5.0000E-10  5.0000E-10   0.000       0.000    
   4   8.0000E-10  5.0000E-10  1.0000E-10  1.0000E-10  1.0000E-10  1.0000E-10  1.0000E-10  1.0000E-10  2.0000E-10   0.000    
   5   8.0000E-10  5.0000E-10  1.0000E-10  1.0000E-10  1.0000E-10  1.0000E-10  1.0000E-10  1.0000E-10  1.0000E-10  1.0000E-10
   6   8.0000E-10  5.0000E-10  5.0000E-10  2.0000E-10  2.0000E-10  1.0000E-10  1.0000E-10  1.0000E-10  1.0000E-10  5.0000E-10
   7   8.0000E-10  5.0000E-10  5.0000E-10  2.0000E-10  2.0000E-10  1.0000E-10  1.0000E-10  2.0000E-10  2.0000E-10   0.000    
   8    0.000      5.0000E-10  5.0000E-10  2.0000E-10  2.0000E-10  1.0000E-10  1.0000E-10  2.0000E-10  5.0000E-10   0.000    
   9    0.000      5.0000E-10  5.0000E-10  2.0000E-10  2.0000E-10  1.0000E-10  1.0000E-10  2.0000E-10  5.0000E-10   0.000    
  10    0.000      5.0000E-10  5.0000E-10  2.0000E-10  2.0000E-10  1.0000E-10  1.0000E-10  2.0000E-10  5.0000E-10  8.0000E-10
  11    0.000      1.0000E-10  1.0000E-10  1.0000E-10  1.0000E-10  1.0000E-10  1.0000E-10  2.0000E-10  5.0000E-10   0.000    
  12   1.0000E-10  1.0000E-10  1.0000E-10  1.0000E-10  1.0000E-10  1.0000E-10  1.0000E-10  1.0000E-10  2.0000E-10   0.000    
  13   1.0000E-10  1.0000E-10  2.0000E-10  2.0000E-10  2.0000E-10  2.0000E-10  2.0000E-10  1.0000E-10  1.0000E-10   0.000    
  14    0.000      2.0000E-10  5.0000E-10  5.0000E-10  5.0000E-10  5.0000E-10  5.0000E-10  2.0000E-10  1.0000E-10   0.000    
  15    0.000       0.000      8.0000E-10  8.0000E-10  8.0000E-10  8.0000E-10   0.000       0.000       0.000       0.000    

                  ET RATE =  5.000000E-10

 USING ET EXTINCTION DEPTH FROM PREVIOUS STRESS PERIOD. CURRENT PERIOD IS:      12

 USING EXTINCTION WATER CONTENT FROM PREVIOUS STRESS PERIOD. CURRENT PERIOD IS:      12

 USING AIR ENTRY PRESSURE FROM PREVIOUS STRESS PERIOD. CURRENT PERIOD IS:      12

 USING ROOT PRESSURE HEAD FROM PREVIOUS STRESS PERIOD. CURRENT PERIOD IS:      12

 USING ROOT ACTIVITY FROM PREVIOUS STRESS PERIOD. CURRENT PERIOD IS:      12

 PROCESSING AG STRESS PERIOD DATA

 READING AG STRESS PERIOD DATA

 READING IRRIGATION SEGMENT

 READING IRRIGATION WELL

 READING SUPPLEMENTAL WELL

 END PROCESSING AG STRESS PERIOD DATA OPTIONS
 
 SOLVING FOR HEAD 
                                                   Max.-Head-Change                         Max.-Flux-Residual
  Residual-Control   Outer-Iter.   Inner-Iter.     Column Row Layer    Maximum-Head-Change  Column Row Layer    Maximum-Flux-Residual          L2-NORM 
          0                 1           2             4    7     1       0.3614804917E-01       4    7    1         0.1905572200E+01      0.3896636374E+01
          0                 2           2             4    7     1      -0.3516246475E-02       4    7    1        -0.1905590564E+00      0.3897329863E+00
          0                 3           2             4    7     1       0.2394430855E-03       4    7    1         0.1333912234E-01      0.2728560707E-01
          0                 4           1             4    7     1      -0.9527665825E-05       4    7    1        -0.5455709443E-03      0.1116702678E-02

    ------------------------------------------------
       NWT REQUIRED            4 OUTER ITERATIONS 
       AND A TOTAL OF          7 INNER ITERATIONS.
    ------------------------------------------------

 NO OUTPUT CONTROL FOR STRESS PERIOD   12   TIME STEP    1
 
 SOLVING FOR HEAD 
                                                   Max.-Head-Change                         Max.-Flux-Residual
  Residual-Control   Outer-Iter.   Inner-Iter.     Column Row Layer    Maximum-Head-Change  Column Row Layer    Maximum-Flux-Residual          L2-NORM 
          0                 1           2             4    7     1       0.3562908541E-01       4    7    1         0.1878181738E+01      0.3844892183E+01
          0                 2           2             4    7     1      -0.3465764798E-02       4    7    1        -0.1878199655E+00      0.3844801485E+00
          0                 3           2             4    7     1       0.2360054766E-03       4    7    1         0.1314738631E-01      0.2691272378E-01
          0                 4           1             4    7     1      -0.9390880075E-05       4    7    1        -0.5377289253E-03      0.1100651530E-02

    ------------------------------------------------
       NWT REQUIRED            4 OUTER ITERATIONS 
       AND A TOTAL OF          7 INNER ITERATIONS.
    ------------------------------------------------

 NO OUTPUT CONTROL FOR STRESS PERIOD   12   TIME STEP    2
 
 SOLVING FOR HEAD 
                                                   Max.-Head-Change                         Max.-Flux-Residual
  Residual-Control   Outer-Iter.   Inner-Iter.     Column Row Layer    Maximum-Head-Change  Column Row Layer    Maximum-Flux-Residual          L2-NORM 
          0                 1           2             4    7     1       0.3511839181E-01       4    7    1         0.1851223003E+01      0.3792731263E+01
          0                 2           2             4    7     1      -0.3416087592E-02       4    7    1        -0.1851240481E+00      0.3792651005E+00
          0                 3           2             4    7     1       0.2326226494E-03       4    7    1         0.1295867242E-01      0.2654774028E-01
          0                 4           1             4    7     1      -0.9256273921E-05       4    7    1        -0.5300105172E-03      0.1085746400E-02

    ------------------------------------------------
       NWT REQUIRED            4 OUTER ITERATIONS 
       AND A TOTAL OF          7 INNER ITERATIONS.
    ------------------------------------------------

 NO OUTPUT CONTROL FOR STRESS PERIOD   12   TIME STEP    3
 
 SOLVING FOR HEAD 
                                                   Max.-Head-Change                         Max.-Flux-Residual
  Residual-Control   Outer-Iter.   Inner-Iter.     Column Row Layer    Maximum-Head-Change  Column Row Layer    Maximum-Flux-Residual          L2-NORM 
          0                 1           2             4    7     1       0.3461576759E-01       4    7    1         0.1824685747E+01      0.3741704567E+01
          0                 2           2             4    7     1      -0.3367195328E-02       4    7    1        -0.1824702793E+00      0.3741634083E+00
          0                 3           2             4    7     1       0.2292932741E-03       4    7    1         0.1277290895E-01      0.2619075479E-01
          0                 4           1             4    7     1      -0.9123795095E-05       4    7    1        -0.5224127838E-03      0.1071180656E-02

    ------------------------------------------------
       NWT REQUIRED            4 OUTER ITERATIONS 
       AND A TOTAL OF          7 INNER ITERATIONS.
    ------------------------------------------------

 NO OUTPUT CONTROL FOR STRESS PERIOD   12   TIME STEP    4
 
 SOLVING FOR HEAD 
                                                   Max.-Head-Change                         Max.-Flux-Residual
  Residual-Control   Outer-Iter.   Inner-Iter.     Column Row Layer    Maximum-Head-Change  Column Row Layer    Maximum-Flux-Residual          L2-NORM 
          0                 1           2             4    7     1       0.3412127768E-01       4    7    1         0.1798574180E+01      0.3691774448E+01
          0                 2           2             4    7     1      -0.3319094321E-02       4    7    1        -0.1798590801E+00      0.3691712195E+00
          0                 3           2             4    7     1       0.2260177795E-03       4    7    1         0.1259012531E-01      0.2584134023E-01
          0                 4           1             4    7     1      -0.8993460174E-05       4    7    1        -0.5149369210E-03      0.1056877309E-02

    ------------------------------------------------
       NWT REQUIRED            4 OUTER ITERATIONS 
       AND A TOTAL OF          7 INNER ITERATIONS.
    ------------------------------------------------

 NO OUTPUT CONTROL FOR STRESS PERIOD   12   TIME STEP    5
 
 SOLVING FOR HEAD 
                                                   Max.-Head-Change                         Max.-Flux-Residual
  Residual-Control   Outer-Iter.   Inner-Iter.     Column Row Layer    Maximum-Head-Change  Column Row Layer    Maximum-Flux-Residual          L2-NORM 
          0                 1           2             4    7     1       0.3363471493E-01       4    7    1         0.1772877048E+01      0.3642913392E+01
          0                 2           2             4    7     1      -0.3271764423E-02       4    7    1        -0.1772893252E+00      0.3642858087E+00
          0                 3           2             4    7     1       0.2227947951E-03       4    7    1         0.1241024280E-01      0.2549942878E-01
          0                 4           1             4    7     1      -0.8865214360E-05       4    7    1        -0.5075797076E-03      0.1042876089E-02

    ------------------------------------------------
       NWT REQUIRED            4 OUTER ITERATIONS 
       AND A TOTAL OF          7 INNER ITERATIONS.
    ------------------------------------------------

 NO OUTPUT CONTROL FOR STRESS PERIOD   12   TIME STEP    6
 
 SOLVING FOR HEAD 
                                                   Max.-Head-Change                         Max.-Flux-Residual
  Residual-Control   Outer-Iter.   Inner-Iter.     Column Row Layer    Maximum-Head-Change  Column Row Layer    Maximum-Flux-Residual          L2-NORM 
          0                 1           2             4    7     1       0.3315613415E-01       4    7    1         0.1747598232E+01      0.3595079823E+01
          0                 2           2             4    7     1      -0.3225210964E-02       4    7    1        -0.1747614028E+00      0.3595031046E+00
          0                 3           2             4    7     1       0.2196246828E-03       4    7    1         0.1223328854E-01      0.2516466789E-01
          0                 4           1             4    7     1      -0.8739072502E-05       4    7    1        -0.5003422616E-03      0.1029185303E-02

    ------------------------------------------------
       NWT REQUIRED            4 OUTER ITERATIONS 
       AND A TOTAL OF          7 INNER ITERATIONS.
    ------------------------------------------------

 NO OUTPUT CONTROL FOR STRESS PERIOD   12   TIME STEP    7
 
 SOLVING FOR HEAD 
                                                   Max.-Head-Change                         Max.-Flux-Residual
  Residual-Control   Outer-Iter.   Inner-Iter.     Column Row Layer    Maximum-Head-Change  Column Row Layer    Maximum-Flux-Residual          L2-NORM 
          0                 1           2             4    7     1       0.3268544585E-01       4    7    1         0.1722733264E+01      0.3548248804E+01
          0                 2           2             4    7     1      -0.3179425241E-02       4    7    1        -0.1722748659E+00      0.3548205202E+00
          0                 3           2             4    7     1       0.2165068506E-03       4    7    1         0.1205923126E-01      0.2483697674E-01
          0                 4           1             4    7     1      -0.8615010999E-05       4    7    1        -0.4932233153E-03      0.1015820232E-02

    ------------------------------------------------
       NWT REQUIRED            4 OUTER ITERATIONS 
       AND A TOTAL OF          7 INNER ITERATIONS.
    ------------------------------------------------

 NO OUTPUT CONTROL FOR STRESS PERIOD   12   TIME STEP    8
 
 SOLVING FOR HEAD 
                                                   Max.-Head-Change                         Max.-Flux-Residual
  Residual-Control   Outer-Iter.   Inner-Iter.     Column Row Layer    Maximum-Head-Change  Column Row Layer    Maximum-Flux-Residual          L2-NORM 
          0                 1           2             4    7     1       0.3222255802E-01       4    7    1         0.1698277504E+01      0.3502381444E+01
          0                 2           2             4    7     1      -0.3134398303E-02       4    7    1        -0.1698292507E+00      0.3502342760E+00
          0                 3           2             4    7     1       0.2134406885E-03       4    7    1         0.1188803847E-01      0.2451597422E-01
          0                 4           1             4    7     1      -0.8493005907E-05       4    7    1        -0.4862215251E-03      0.1002692115E-02

    ------------------------------------------------
       NWT REQUIRED            4 OUTER ITERATIONS 
       AND A TOTAL OF          7 INNER ITERATIONS.
    ------------------------------------------------

 NO OUTPUT CONTROL FOR STRESS PERIOD   12   TIME STEP    9
 
 SOLVING FOR HEAD 
                                                   Max.-Head-Change                         Max.-Flux-Residual
  Residual-Control   Outer-Iter.   Inner-Iter.     Column Row Layer    Maximum-Head-Change  Column Row Layer    Maximum-Flux-Residual          L2-NORM 
          0                 1           2             4    7     1       0.3176737572E-01       4    7    1         0.1674226181E+01      0.3457453525E+01
          0                 2           2             4    7     1      -0.3090120915E-02       4    7    1        -0.1674240801E+00      0.3457419160E+00
          0                 3           2             4    7     1       0.2104255683E-03       4    7    1         0.1171967685E-01      0.2420156923E-01
          0                 4           1             4    7     1      -0.8373030859E-05       4    7    1        -0.4793355060E-03      0.9898327259E-03

    ------------------------------------------------
       NWT REQUIRED            4 OUTER ITERATIONS 
       AND A TOTAL OF          7 INNER ITERATIONS.
    ------------------------------------------------

 NO OUTPUT CONTROL FOR STRESS PERIOD   12   TIME STEP   10
 
 SOLVING FOR HEAD 
                                                   Max.-Head-Change                         Max.-Flux-Residual
  Residual-Control   Outer-Iter.   Inner-Iter.     Column Row Layer    Maximum-Head-Change  Column Row Layer    Maximum-Flux-Residual          L2-NORM 
          0                 1           2             4    7     1       0.3131979774E-01       4    7    1         0.1650574374E+01      0.3413432898E+01
          0                 2           2             4    7     1      -0.3046583231E-02       4    7    1        -0.1650588618E+00      0.3413401837E+00
          0                 3           2             4    7     1       0.2074608191E-03       4    7    1         0.1155411186E-01      0.2389344957E-01
          0                 4           1             4    7     1      -0.8255061103E-05       4    7    1        -0.4725639042E-03      0.9772245976E-03

    ------------------------------------------------
       NWT REQUIRED            4 OUTER ITERATIONS 
       AND A TOTAL OF          7 INNER ITERATIONS.
    ------------------------------------------------

 NO OUTPUT CONTROL FOR STRESS PERIOD   12   TIME STEP   11
 
 SOLVING FOR HEAD 
                                                   Max.-Head-Change                         Max.-Flux-Residual
  Residual-Control   Outer-Iter.   Inner-Iter.     Column Row Layer    Maximum-Head-Change  Column Row Layer    Maximum-Flux-Residual          L2-NORM 
          0                 1           2             4    7     1       0.3087972028E-01       4    7    1         0.1627316834E+01      0.3370292843E+01
          0                 2           2             4    7     1      -0.3003775156E-02       4    7    1        -0.1627330711E+00      0.3370264852E+00
          0                 3           2             4    7     1       0.2045457526E-03       4    7    1         0.1139130677E-01      0.2359151447E-01
          0                 4           1             4    7     1      -0.8139067628E-05       4    7    1        -0.4659051469E-03      0.9648974367E-03

    ------------------------------------------------
       NWT REQUIRED            4 OUTER ITERATIONS 
       AND A TOTAL OF          7 INNER ITERATIONS.
    ------------------------------------------------

 NO OUTPUT CONTROL FOR STRESS PERIOD   12   TIME STEP   12
 
 SOLVING FOR HEAD 
                                                   Max.-Head-Change                         Max.-Flux-Residual
  Residual-Control   Outer-Iter.   Inner-Iter.     Column Row Layer    Maximum-Head-Change  Column Row Layer    Maximum-Flux-Residual          L2-NORM 
          0                 1           2             4    7     1       0.3044717629E-01       4    7    1         0.1604455494E+01      0.3328020422E+01
          0                 2           2             4    7     1      -0.2961699895E-02       4    7    1        -0.1604469013E+00      0.3327995955E+00
          0                 3           2             4    7     1       0.2016805885E-03       4    7    1         0.1123127515E-01      0.2329571170E-01
          0                 4           1             4    7     1      -0.8025060104E-05       4    7    1        -0.4593598508E-03      0.9527827999E-03

    ------------------------------------------------
       NWT REQUIRED            4 OUTER ITERATIONS 
       AND A TOTAL OF          7 INNER ITERATIONS.
    ------------------------------------------------

 NO OUTPUT CONTROL FOR STRESS PERIOD   12   TIME STEP   13
 
 SOLVING FOR HEAD 
                                                   Max.-Head-Change                         Max.-Flux-Residual
  Residual-Control   Outer-Iter.   Inner-Iter.     Column Row Layer    Maximum-Head-Change  Column Row Layer    Maximum-Flux-Residual          L2-NORM 
          0                 1           2             4    7     1       0.3002204977E-01       4    7    1         0.1581984750E+01      0.3286570301E+01
          0                 2           2             4    7     1      -0.2920346164E-02       4    7    1        -0.1581997920E+00      0.3286546682E+00
          0                 3           2             4    7     1       0.1988645580E-03       4    7    1         0.1107397776E-01      0.2300546962E-01
          0                 4           1             4    7     1      -0.7913008022E-05       4    7    1        -0.4529263924E-03      0.9408829107E-03

    ------------------------------------------------
       NWT REQUIRED            4 OUTER ITERATIONS 
       AND A TOTAL OF          7 INNER ITERATIONS.
    ------------------------------------------------

 NO OUTPUT CONTROL FOR STRESS PERIOD   12   TIME STEP   14
 
 SOLVING FOR HEAD 
                                                   Max.-Head-Change                         Max.-Flux-Residual
  Residual-Control   Outer-Iter.   Inner-Iter.     Column Row Layer    Maximum-Head-Change  Column Row Layer    Maximum-Flux-Residual          L2-NORM 
          0                 1           2             4    7     1       0.2960408926E-01       4    7    1         0.1559891272E+01      0.3245935145E+01
          0                 2           2             4    7     1      -0.2879689502E-02       4    7    1        -0.1559904100E+00      0.3245914938E+00
          0                 3           2             4    7     1       0.1960959947E-03       4    7    1         0.1091932127E-01      0.2272116860E-01
          0                 4           1             4    7     1      -0.7802843688E-05       4    7    1        -0.4466009148E-03      0.9292929504E-03

    ------------------------------------------------
       NWT REQUIRED            4 OUTER ITERATIONS 
       AND A TOTAL OF          7 INNER ITERATIONS.
    ------------------------------------------------

 NO OUTPUT CONTROL FOR STRESS PERIOD   12   TIME STEP   15
 
 SOLVING FOR HEAD 
                                                   Max.-Head-Change                         Max.-Flux-Residual
  Residual-Control   Outer-Iter.   Inner-Iter.     Column Row Layer    Maximum-Head-Change  Column Row Layer    Maximum-Flux-Residual          L2-NORM 
          0                 1           2             4    7     1       0.2919332186E-01       4    7    1         0.1538176652E+01      0.3206085526E+01
          0                 2           2             4    7     1      -0.2839730082E-02       4    7    1        -0.1538189146E+00      0.3205261466E+00
          0                 3           2             4    7     1       0.1933749109E-03       4    7    1         0.1076731684E-01      0.2243659930E-01
          0                 4           1             4    7     1      -0.7694569519E-05       4    7    1        -0.4403839232E-03      0.9176485414E-03

    ------------------------------------------------
       NWT REQUIRED            4 OUTER ITERATIONS 
       AND A TOTAL OF          7 INNER ITERATIONS.
    ------------------------------------------------

 NO OUTPUT CONTROL FOR STRESS PERIOD   12   TIME STEP   16
 
 SOLVING FOR HEAD 
                                                   Max.-Head-Change                         Max.-Flux-Residual
  Residual-Control   Outer-Iter.   Inner-Iter.     Column Row Layer    Maximum-Head-Change  Column Row Layer    Maximum-Flux-Residual          L2-NORM 
          0                 1           2             4    7     1       0.2878964598E-01       4    7    1         0.1516835112E+01      0.3167070050E+01
          0                 2           2             4    7     1      -0.2800465415E-02       4    7    1        -0.1516847281E+00      0.3167053775E+00
          0                 3           2             4    7     1       0.1907011375E-03       4    7    1         0.1061792403E-01      0.2216917064E-01
          0                 4           1             4    7     1      -0.7588177685E-05       4    7    1        -0.4342737570E-03      0.9067090245E-03

    ------------------------------------------------
       NWT REQUIRED            4 OUTER ITERATIONS 
       AND A TOTAL OF          7 INNER ITERATIONS.
    ------------------------------------------------

 NO OUTPUT CONTROL FOR STRESS PERIOD   12   TIME STEP   17
 
 SOLVING FOR HEAD 
                                                   Max.-Head-Change                         Max.-Flux-Residual
  Residual-Control   Outer-Iter.   Inner-Iter.     Column Row Layer    Maximum-Head-Change  Column Row Layer    Maximum-Flux-Residual          L2-NORM 
          0                 1           2             4    7     1       0.2839280411E-01       4    7    1         0.1495853674E+01      0.3128870670E+01
          0                 2           2             4    7     1      -0.2761863056E-02       4    7    1        -0.1495865525E+00      0.3128855845E+00
          0                 3           2             4    7     1       0.1880724650E-03       4    7    1         0.1047105200E-01      0.2190178451E-01
          0                 4           1             4    7     1      -0.7483580346E-05       4    7    1        -0.4282666866E-03      0.8957715895E-03

    ------------------------------------------------
       NWT REQUIRED            4 OUTER ITERATIONS 
       AND A TOTAL OF          7 INNER ITERATIONS.
    ------------------------------------------------

 NO OUTPUT CONTROL FOR STRESS PERIOD   12   TIME STEP   18
 
 SOLVING FOR HEAD 
                                                   Max.-Head-Change                         Max.-Flux-Residual
  Residual-Control   Outer-Iter.   Inner-Iter.     Column Row Layer    Maximum-Head-Change  Column Row Layer    Maximum-Flux-Residual          L2-NORM 
          0                 1           2             4    7     1       0.2800295977E-01       4    7    1         0.1475241331E+01      0.3091390292E+01
          0                 2           2             4    7     1      -0.2723941378E-02       4    7    1        -0.1475252873E+00      0.3091376515E+00
          0                 3           2             4    7     1       0.1854901435E-03       4    7    1         0.1032676366E-01      0.2163944579E-01
          0                 4           1             4    7     1      -0.7380827121E-05       4    7    1        -0.4223652695E-03      0.8850454572E-03

    ------------------------------------------------
       NWT REQUIRED            4 OUTER ITERATIONS 
       AND A TOTAL OF          7 INNER ITERATIONS.
    ------------------------------------------------

 NO OUTPUT CONTROL FOR STRESS PERIOD   12   TIME STEP   19
 
 SOLVING FOR HEAD 
                                                   Max.-Head-Change                         Max.-Flux-Residual
  Residual-Control   Outer-Iter.   Inner-Iter.     Column Row Layer    Maximum-Head-Change  Column Row Layer    Maximum-Flux-Residual          L2-NORM 
          0                 1           2             4    7     1       0.2761985655E-01       4    7    1         0.1454984480E+01      0.3054612412E+01
          0                 2           2             4    7     1      -0.2686675438E-02       4    7    1        -0.1454995720E+00      0.3054600482E+00
          0                 3           2             4    7     1       0.1829524755E-03       4    7    1         0.1018496381E-01      0.2138203495E-01
          0                 4           1             4    7     1      -0.7279851005E-05       4    7    1        -0.4165656503E-03      0.8745777636E-03

    ------------------------------------------------
       NWT REQUIRED            4 OUTER ITERATIONS 
       AND A TOTAL OF          7 INNER ITERATIONS.
    ------------------------------------------------

 NO OUTPUT CONTROL FOR STRESS PERIOD   12   TIME STEP   20
 
 SOLVING FOR HEAD 
                                                   Max.-Head-Change                         Max.-Flux-Residual
  Residual-Control   Outer-Iter.   Inner-Iter.     Column Row Layer    Maximum-Head-Change  Column Row Layer    Maximum-Flux-Residual          L2-NORM 
          0                 1           2             4    7     1       0.2724351259E-01       4    7    1         0.1435084461E+01      0.3018516933E+01
          0                 2           2             4    7     1      -0.2650067006E-02       4    7    1        -0.1435095406E+00      0.3018505259E+00
          0                 3           2             4    7     1       0.1804595802E-03       4    7    1         0.1004566183E-01      0.2112935407E-01
          0                 4           1             4    7     1      -0.7180656374E-05       4    7    1        -0.4108681794E-03      0.8641810152E-03

    ------------------------------------------------
       NWT REQUIRED            4 OUTER ITERATIONS 
       AND A TOTAL OF          7 INNER ITERATIONS.
    ------------------------------------------------

 NO OUTPUT CONTROL FOR STRESS PERIOD   12   TIME STEP   21
 
 SOLVING FOR HEAD 
                                                   Max.-Head-Change                         Max.-Flux-Residual
  Residual-Control   Outer-Iter.   Inner-Iter.     Column Row Layer    Maximum-Head-Change  Column Row Layer    Maximum-Flux-Residual          L2-NORM 
          0                 1           2             4    7     1       0.2687367268E-01       4    7    1         0.1415527578E+01      0.2983082205E+01
          0                 2           2             4    7     1      -0.2614091335E-02       4    7    1        -0.1415538237E+00      0.2983072770E+00
          0                 3           2             4    7     1       0.1780097741E-03       4    7    1         0.9908761844E-02      0.2088136180E-01
          0                 4           1             4    7     1      -0.7083175877E-05       4    7    1        -0.4052689617E-03      0.8540369355E-03

    ------------------------------------------------
       NWT REQUIRED            4 OUTER ITERATIONS 
       AND A TOTAL OF          7 INNER ITERATIONS.
    ------------------------------------------------

 NO OUTPUT CONTROL FOR STRESS PERIOD   12   TIME STEP   22
 
 SOLVING FOR HEAD 
                                                   Max.-Head-Change                         Max.-Flux-Residual
  Residual-Control   Outer-Iter.   Inner-Iter.     Column Row Layer    Maximum-Head-Change  Column Row Layer    Maximum-Flux-Residual          L2-NORM 
          0                 1           2             4    7     1       0.2651021946E-01       4    7    1         0.1396307913E+01      0.2948297880E+01
          0                 2           2             4    7     1      -0.2578736834E-02       4    7    1        -0.1396318293E+00      0.2948289080E+00
          0                 3           2             4    7     1       0.1756022680E-03       4    7    1         0.9774222450E-02      0.2063786797E-01
          0                 4           1             4    7     1      -0.6987379237E-05       4    7    1        -0.3997662966E-03      0.8440720476E-03

    ------------------------------------------------
       NWT REQUIRED            4 OUTER ITERATIONS 
       AND A TOTAL OF          7 INNER ITERATIONS.
    ------------------------------------------------

 NO OUTPUT CONTROL FOR STRESS PERIOD   12   TIME STEP   23
 
 SOLVING FOR HEAD 
                                                   Max.-Head-Change                         Max.-Flux-Residual
  Residual-Control   Outer-Iter.   Inner-Iter.     Column Row Layer    Maximum-Head-Change  Column Row Layer    Maximum-Flux-Residual          L2-NORM 
          0                 1           2             4    7     1       0.2615317615E-01       4    7    1         0.1377426710E+01      0.2914149382E+01
          0                 2           2             4    7     1      -0.2544005854E-02       4    7    1        -0.1377436818E+00      0.2914141072E+00
          0                 3           2             4    7     1       0.1732372210E-03       4    7    1         0.9642052326E-02      0.2039883619E-01
          0                 4           1             4    7     1      -0.6893271980E-05       4    7    1        -0.3943605386E-03      0.8343151884E-03

    ------------------------------------------------
       NWT REQUIRED            4 OUTER ITERATIONS 
       AND A TOTAL OF          7 INNER ITERATIONS.
    ------------------------------------------------

 NO OUTPUT CONTROL FOR STRESS PERIOD   12   TIME STEP   24
 
 SOLVING FOR HEAD 
                                                   Max.-Head-Change                         Max.-Flux-Residual
  Residual-Control   Outer-Iter.   Inner-Iter.     Column Row Layer    Maximum-Head-Change  Column Row Layer    Maximum-Flux-Residual          L2-NORM 
          0                 1           2             4    7     1       0.2580228416E-01       4    7    1         0.1358870530E+01      0.2880607359E+01
          0                 2           2             4    7     1      -0.2509873240E-02       4    7    1        -0.1358880373E+00      0.2880599589E+00
          0                 3           2             4    7     1       0.1709129206E-03       4    7    1         0.9512157421E-02      0.2016406649E-01
          0                 4           1             4    7     1      -0.6800785719E-05       4    7    1        -0.3890478263E-03      0.8247111728E-03

    ------------------------------------------------
       NWT REQUIRED            4 OUTER ITERATIONS 
       AND A TOTAL OF          7 INNER ITERATIONS.
    ------------------------------------------------

 NO OUTPUT CONTROL FOR STRESS PERIOD   12   TIME STEP   25
 
 SOLVING FOR HEAD 
                                                   Max.-Head-Change                         Max.-Flux-Residual
  Residual-Control   Outer-Iter.   Inner-Iter.     Column Row Layer    Maximum-Head-Change  Column Row Layer    Maximum-Flux-Residual          L2-NORM 
          0                 1           2             4    7     1       0.2545769581E-01       4    7    1         0.1340647924E+01      0.2847668719E+01
          0                 2           2             4    7     1      -0.2476353809E-02       4    7    1        -0.1340657510E+00      0.2847661413E+00
          0                 3           2             4    7     1       0.1686303753E-03       4    7    1         0.9384597548E-02      0.1993349285E-01
          0                 4           1             4    7     1      -0.6709961555E-05       4    7    1        -0.3838306445E-03      0.8152666995E-03

    ------------------------------------------------
       NWT REQUIRED            4 OUTER ITERATIONS 
       AND A TOTAL OF          7 INNER ITERATIONS.
    ------------------------------------------------

 NO OUTPUT CONTROL FOR STRESS PERIOD   12   TIME STEP   26
 
 SOLVING FOR HEAD 
                                                   Max.-Head-Change                         Max.-Flux-Residual
  Residual-Control   Outer-Iter.   Inner-Iter.     Column Row Layer    Maximum-Head-Change  Column Row Layer    Maximum-Flux-Residual          L2-NORM 
          0                 1           2             4    7     1       0.2511901932E-01       4    7    1         0.1322737509E+01      0.2815319208E+01
          0                 2           2             4    7     1      -0.2443409451E-02       4    7    1        -0.1322746846E+00      0.2815308643E+00
          0                 3           2             4    7     1       0.1663869898E-03       4    7    1         0.9259223074E-02      0.1970703746E-01
          0                 4           1             4    7     1      -0.6620694607E-05       4    7    1        -0.3787027867E-03      0.8060120358E-03

    ------------------------------------------------
       NWT REQUIRED            4 OUTER ITERATIONS 
       AND A TOTAL OF          7 INNER ITERATIONS.
    ------------------------------------------------

 NO OUTPUT CONTROL FOR STRESS PERIOD   12   TIME STEP   27
 
 SOLVING FOR HEAD 
                                                   Max.-Head-Change                         Max.-Flux-Residual
  Residual-Control   Outer-Iter.   Inner-Iter.     Column Row Layer    Maximum-Head-Change  Column Row Layer    Maximum-Flux-Residual          L2-NORM 
          0                 1           2             4    7     1       0.2478627617E-01       4    7    1         0.1305140935E+01      0.2783541814E+01
          0                 2           2             4    7     1      -0.2411042256E-02       4    7    1        -0.1305150028E+00      0.2783535160E+00
          0                 3           2             4    7     1       0.1641829075E-03       4    7    1         0.9136045536E-02      0.1948462375E-01
          0                 4           1             4    7     1      -0.6532992012E-05       4    7    1        -0.3736648171E-03      0.7969002689E-03

    ------------------------------------------------
       NWT REQUIRED            4 OUTER ITERATIONS 
       AND A TOTAL OF          7 INNER ITERATIONS.
    ------------------------------------------------

 NO OUTPUT CONTROL FOR STRESS PERIOD   12   TIME STEP   28
 
 SOLVING FOR HEAD 
                                                   Max.-Head-Change                         Max.-Flux-Residual
  Residual-Control   Outer-Iter.   Inner-Iter.     Column Row Layer    Maximum-Head-Change  Column Row Layer    Maximum-Flux-Residual          L2-NORM 
          0                 1           2             4    7     1       0.2445935181E-01       4    7    1         0.1287851994E+01      0.2752318724E+01
          0                 2           2             4    7     1      -0.2379241079E-02       4    7    1        -0.1287860850E+00      0.2752312478E+00
          0                 3           2             4    7     1       0.1620173691E-03       4    7    1         0.9015021466E-02      0.1926609572E-01
          0                 4           1             4    7     1      -0.6446823378E-05       4    7    1        -0.3687149447E-03      0.7880087538E-03

    ------------------------------------------------
       NWT REQUIRED            4 OUTER ITERATIONS 
       AND A TOTAL OF          7 INNER ITERATIONS.
    ------------------------------------------------

 NO OUTPUT CONTROL FOR STRESS PERIOD   12   TIME STEP   29
 
 SOLVING FOR HEAD 
                                                   Max.-Head-Change                         Max.-Flux-Residual
  Residual-Control   Outer-Iter.   Inner-Iter.     Column Row Layer    Maximum-Head-Change  Column Row Layer    Maximum-Flux-Residual          L2-NORM 
          0                 1           2             4    7     1       0.2413812686E-01       4    7    1         0.1270864746E+01      0.2722116459E+01
          0                 2           2             4    7     1      -0.2347994309E-02       4    7    1        -0.1270873371E+00      0.2722104483E+00
          0                 3           2             4    7     1       0.1598895830E-03       4    7    1         0.8896109282E-02      0.1905458095E-01
          0                 4           1             4    7     1      -0.6362156699E-05       4    7    1        -0.3638514133E-03      0.7793376925E-03

    ------------------------------------------------
       NWT REQUIRED            4 OUTER ITERATIONS 
       AND A TOTAL OF          7 INNER ITERATIONS.
    ------------------------------------------------

 NO OUTPUT CONTROL FOR STRESS PERIOD   12   TIME STEP   30



 STREAM LISTING     PERIOD     12   STEP       30

 LAYER ROW COL. STREAM  RCH.  FLOW INTO     FLOW TO   FLOW OUT OF   OVRLND.     DIRECT     STREAM       STREAM     STREAM     STREAM   STREAMBED  STREAMBED
                SEG.NO.  NO.  STRM. RCH.    AQUIFER    STRM. RCH.    RUNOFF     PRECIP       ET          HEAD       DEPTH      WIDTH   CONDCTNC.   GRADIENT

   1    1    1     1     1    9.5403E+00  1.4421E-01   9.3961E+00  0.000E+00  0.000E+00  0.000E+00  1.09393E+03  8.839E-01  8.251E+00  3.713E-02  1.295E+00
   1    2    2     1     2    9.3961E+00  2.2163E-01   9.1745E+00  0.000E+00  0.000E+00  0.000E+00  1.08894E+03  8.782E-01  8.164E+00  5.715E-02  1.293E+00
   1    3    3     1     3    9.1745E+00  1.8736E-01   8.9871E+00  0.000E+00  0.000E+00  0.000E+00  1.08329E+03  8.718E-01  8.065E+00  4.839E-02  1.291E+00
   1    3    4     1     4    8.9871E+00  1.7119E-01   8.8160E+00  0.000E+00  0.000E+00  0.000E+00  1.07827E+03  8.661E-01  7.978E+00  4.428E-02  1.289E+00
   1    4    5     2     1    6.8160E+00  2.7666E-01   6.5393E+00  0.000E+00  0.000E+00  0.000E+00  1.07248E+03  5.469E-01  1.200E+01  7.800E-02  1.182E+00
   1    5    6     2     2    6.5393E+00  2.1209E-01   6.3272E+00  0.000E+00  0.000E+00  0.000E+00  1.06704E+03  5.348E-01  1.200E+01  6.000E-02  1.178E+00
   1    6    6     2     3    6.3272E+00  2.1145E-01   6.1158E+00  0.000E+00  0.000E+00  0.000E+00  1.06232E+03  5.242E-01  1.200E+01  6.000E-02  1.175E+00
   1    7    6     2     4    6.1158E+00  2.1081E-01   5.9050E+00  0.000E+00  0.000E+00  0.000E+00  1.05759E+03  5.134E-01  1.200E+01  6.000E-02  1.171E+00
   1    8    6     2     5    5.9050E+00  2.1015E-01   5.6948E+00  0.000E+00  0.000E+00  0.000E+00  1.05286E+03  5.026E-01  1.200E+01  6.000E-02  1.168E+00
   1    3    5     3     1    2.0000E+00  2.8252E-01   1.7175E+00  0.000E+00  0.000E+00  0.000E+00  1.07555E+03  1.909E+00  9.636E+00  7.227E-02  1.955E+00
   1    3    6     3     2    1.7175E+00  2.4905E-01   1.4684E+00  0.000E+00  0.000E+00  0.000E+00  1.07264E+03  1.727E+00  8.909E+00  6.682E-02  1.864E+00
   1    3    7     3     3    1.4684E+00  1.9718E-01   1.2712E+00  0.000E+00  0.000E+00  0.000E+00  1.06987E+03  1.555E+00  8.218E+00  5.547E-02  1.777E+00
   1    4    8     3     4    1.2712E+00  2.2567E-01   1.0456E+00  0.000E+00  0.000E+00  0.000E+00  1.06682E+03  1.364E+00  7.455E+00  6.709E-02  1.682E+00
   1    5    8     3     5    1.0456E+00  1.5790E-01   8.8768E-01  0.000E+00  0.000E+00  0.000E+00  1.06362E+03  1.164E+00  6.655E+00  4.991E-02  1.582E+00
   1    6    8     3     6    8.8768E-01  5.5980E-02   8.3170E-01  0.000E+00  0.000E+00  0.000E+00  1.06158E+03  1.036E+00  6.145E+00  1.844E-02  1.518E+00
   1    5   10     4     1    1.0000E+01  9.0919E-02   9.9091E+00  0.000E+00  0.000E+00  0.000E+00  1.07836E+03  6.368E-01  1.000E+01  2.500E-02  1.212E+00
   1    5    9     4     2    9.9091E+00  1.8158E-01   9.7275E+00  0.000E+00  0.000E+00  0.000E+00  1.07154E+03  6.315E-01  1.000E+01  5.000E-02  1.211E+00
   1    6    8     4     3    9.7275E+00  1.2689E-01   9.6006E+00  0.000E+00  0.000E+00  0.000E+00  1.06381E+03  6.256E-01  1.000E+01  3.500E-02  1.209E+00
   1    6    8     5     1    1.0432E+01  2.2686E-01   1.0205E+01  0.000E+00  0.000E+00  0.000E+00  1.05868E+03  6.790E-01  1.542E+01  6.166E-02  1.226E+00
   1    7    7     5     2    1.0205E+01  2.7894E-01   9.9265E+00  0.000E+00  0.000E+00  0.000E+00  1.05417E+03  6.732E-01  1.519E+01  7.594E-02  1.224E+00
   1    8    7     5     3    9.9265E+00  1.9221E-01   9.7343E+00  0.000E+00  0.000E+00  0.000E+00  1.04992E+03  6.676E-01  1.497E+01  5.241E-02  1.223E+00
   1    8    6     5     4    9.7343E+00  1.3577E-01   9.5985E+00  0.000E+00  0.000E+00  0.000E+00  1.04691E+03  6.637E-01  1.482E+01  3.706E-02  1.221E+00
   1    9    6     6     1    1.5293E+01  2.3430E-01   1.5059E+01  0.000E+00  0.000E+00  0.000E+00  1.04363E+03  9.050E-01  1.200E+01  6.000E-02  1.302E+00
   1   10    7     6     2    1.5059E+01  2.3380E-01   1.4825E+01  0.000E+00  0.000E+00  0.000E+00  1.03908E+03  8.966E-01  1.200E+01  6.000E-02  1.299E+00
   1   11    7     6     3    1.4825E+01  2.3329E-01   1.4592E+01  0.000E+00  0.000E+00  0.000E+00  1.03452E+03  8.882E-01  1.200E+01  6.000E-02  1.296E+00
   1   12    7     6     4    1.4592E+01  2.3278E-01   1.4359E+01  0.000E+00  0.000E+00  0.000E+00  1.02997E+03  8.797E-01  1.200E+01  6.000E-02  1.293E+00
   1   13    7     6     5    1.4359E+01 -1.1981E-02   1.4371E+01  0.000E+00  0.000E+00  0.000E+00  1.02678E+03  8.757E-01  1.200E+01  2.400E-01 -1.664E-02
   1   14    9     7     1    1.5000E+02  1.3693E+00   1.4863E+02  0.000E+00  0.000E+00  0.000E+00  1.03987E+03  2.288E+00  5.529E+01  5.593E-01  8.161E-01
   1   13    8     7     2    1.4863E+02  1.9192E+00   1.4671E+02  0.000E+00  0.000E+00  0.000E+00  1.03478E+03  2.279E+00  5.525E+01  6.148E-01  1.041E+00
   1   13    7     7     3    1.4671E+02  1.5938E+00   1.4512E+02  0.000E+00  0.000E+00  0.000E+00  1.02969E+03  2.270E+00  5.521E+01  5.584E-01  9.514E-01
   1   13    6     8     1    1.5949E+02  9.8353E-01   1.5851E+02  0.000E+00  0.000E+00  0.000E+00  1.02475E+03  2.879E+00  4.175E+01  4.254E-01  7.707E-01
   1   13    5     8     2    1.5851E+02  2.4153E-01   1.5826E+02  0.000E+00  0.000E+00  0.000E+00  1.01850E+03  2.875E+00  4.169E+01  4.248E-01  1.895E-01
   1   13    4     8     3    1.5826E+02 -2.2016E+00   1.6047E+02  0.000E+00  0.000E+00  0.000E+00  1.01226E+03  2.882E+00  4.178E+01  4.258E+00 -1.724E-01
   1   13    3     8     4    1.6047E+02 -3.5386E+00   1.6400E+02  0.000E+00  0.000E+00  0.000E+00  1.00603E+03  2.901E+00  4.206E+01  4.286E+00 -2.752E-01
   1   13    2     8     5    1.6400E+02 -2.5572E+00   1.6656E+02  0.000E+00  0.000E+00  0.000E+00  9.99796E+02  2.921E+00  4.236E+01  4.316E+00 -1.975E-01
   1   13    1     8     6    1.6656E+02 -1.9780E+00   1.6854E+02  0.000E+00  0.000E+00  0.000E+00  9.94811E+02  2.936E+00  4.257E+01  2.603E+00 -2.533E-01
   1    8    6     9     1    0.0000E+00  0.0000E+00   0.0000E+00  0.000E+00  0.000E+00  0.000E+00  1.07875E+03  0.000E+00  4.000E+00  0.000E+00  1.000E+00
   1    8    5     9     2    0.0000E+00  0.0000E+00   0.0000E+00  0.000E+00  0.000E+00  0.000E+00  1.07825E+03  0.000E+00  4.000E+00  0.000E+00  1.000E+00





UNSATURATED ZONE PACKAGE VOLUMETRIC BUDGET FOR  TIME STEP    30 STRESS PERIOD   12
  ------------------------------------------------------------------------------



     CUMULATIVE VOLUMES      L**3       RATES FOR THIS TIME STEP      L**3/T
     ------------------                 ------------------------

           IN:                                      IN:
           ---                                      ---
        INFILTRATION =   516178005.4949          INFILTRATION =           0.8475

          OUT:                                     OUT:
          ----                                     ----
              UZF ET =   428554564.3248                UZF ET =           0.7500
        UZF RECHARGE =       73224.0000          UZF RECHARGE =       0.0000E+00

            IN - OUT =    87550217.1701              IN - OUT =       9.7500E-02

          STORAGE:                                 STORAGE:
          --------                                 --------
      STORAGE CHANGE =    87550185.9040        STORAGE CHANGE =       9.7500E-02

 PERCENT DISCREPANCY IS DIFFERENCE BETWEEN IN-OUT MINUS CHANGE IN STORAGE
 DIVIDED BY THE AVERAGE OF IN AND OUT TIMES 100

 PERCENT DISCREPANCY =           0.00     PERCENT DISCREPANCY =           0.00






1
  VOLUMETRIC BUDGET FOR AGRICULTURAL FIELDS AT  END OF TIME STEP   30, STRESS PERIOD  12
  ------------------------------------------------------------------------------

     CUMULATIVE VOLUMES      L**3       RATES FOR THIS TIME STEP      L**3/T
     ------------------                 ------------------------

           IN:                                      IN:
           ---                                      ---
               AG WELLS  =   300639168.0000                 AG WELLS  =           0.0000
      DIVERSION SEGMENTS =   190946272.0000        DIVERSION SEGMENTS =           0.0000
           GW IRRIGATION =           0.0000             GW IRRIGATION =           0.0000
           SW IRRIGATION =           0.0000             SW IRRIGATION =           0.0000
        SYSTEM LOSSES GW =           0.0000          SYSTEM LOSSES GW =           0.0000
        SYSTEM LOSSES SW =           0.0000          SYSTEM LOSSES SW =           0.0000

                TOTAL IN =   491585440.0000                  TOTAL IN =           0.0000

          OUT:                                     OUT:
          ----                                     ----
               AG WELLS  =           0.0000                 AG WELLS  =           0.0000
      DIVERSION SEGMENTS =           0.0000        DIVERSION SEGMENTS =           0.0000
           GW IRRIGATION =   300639168.0000             GW IRRIGATION =           0.0000
           SW IRRIGATION =   190950192.0000             SW IRRIGATION =           0.0000
        SYSTEM LOSSES GW =           0.0000          SYSTEM LOSSES GW =           0.0000
        SYSTEM LOSSES SW =           0.0000          SYSTEM LOSSES SW =           0.0000

               TOTAL OUT =   491589376.0000                 TOTAL OUT =           0.0000

                IN - OUT =       -3936.0000                  IN - OUT =           0.0000

     PERCENT DISCREPANCY =          -0.00         PERCENT DISCREPANCY =           0.00



1
  VOLUMETRIC BUDGET FOR ENTIRE MODEL AT END OF TIME STEP   30, STRESS PERIOD  12
  ------------------------------------------------------------------------------

     CUMULATIVE VOLUMES      L**3       RATES FOR THIS TIME STEP      L**3/T
     ------------------                 ------------------------

           IN:                                      IN:
           ---                                      ---
             STORAGE     =   416175072.0000               STORAGE     =           6.9982
       CONSTANT HEAD     =           0.0000         CONSTANT HEAD     =           0.0000
     HEAD DEP BOUNDS     =     8354564.0000       HEAD DEP BOUNDS     =           0.2880
      STREAM LEAKAGE     =   341467328.0000        STREAM LEAKAGE     =          11.2884
        UZF RECHARGE     =       73223.9531          UZF RECHARGE     =           0.0000
               GW ET     =           0.0000                 GW ET     =           0.0000
     SURFACE LEAKAGE     =           0.0000       SURFACE LEAKAGE     =           0.0000
           AG WELLS      =           0.0000             AG WELLS      =           0.0000

                TOTAL IN =   766070144.0000                  TOTAL IN =          18.5747

          OUT:                                     OUT:
          ----                                     ----
             STORAGE     =   157433456.0000               STORAGE     =           7.9996
       CONSTANT HEAD     =           0.0000         CONSTANT HEAD     =           0.0000
     HEAD DEP BOUNDS     =     8361809.0000       HEAD DEP BOUNDS     =           0.2877
      STREAM LEAKAGE     =   299640192.0000        STREAM LEAKAGE     =          10.2874
        UZF RECHARGE     =           0.0000          UZF RECHARGE     =           0.0000
               GW ET     =           0.0000                 GW ET     =           0.0000
     SURFACE LEAKAGE     =           0.0000       SURFACE LEAKAGE     =           0.0000
           AG WELLS      =   300639168.0000             AG WELLS      =           0.0000

               TOTAL OUT =   766074624.0000                 TOTAL OUT =          18.5747

                IN - OUT =       -4480.0000                  IN - OUT =       7.6294E-06

     PERCENT DISCREPANCY =          -0.00         PERCENT DISCREPANCY =           0.00






         TIME SUMMARY AT END OF TIME STEP   30 IN STRESS PERIOD   12
                    SECONDS     MINUTES      HOURS       DAYS        YEARS
                    -----------------------------------------------------------
   TIME STEP LENGTH  87667.      1461.1      24.352      1.0147     2.77799E-03
 STRESS PERIOD TIME 2.63000E+06  43833.      730.56      30.440     8.33397E-02
         TOTAL TIME 2.90163E+07 4.83606E+05  8060.1      335.84     0.91947    
1
1
                            STRESS PERIOD NO.   13, LENGTH =   2630000.    
                            -----------------------------------------------

                              NUMBER OF TIME STEPS =    30

                               MULTIPLIER FOR DELT =     1.000

                            INITIAL TIME STEP SIZE =   87666.66    

 REUSING NON-PARAMETER GHB CELLS FROM LAST STRESS PERIOD

      2 GHB CELLS

 REUSING STREAM SEGMENT DATA FROM LAST STRESS PERIOD



            AREAL INFILTRATION RATE
 READING ON UNIT   19 WITH FORMAT: (FREE)              

            1           2           3           4           5           6           7           8           9          10
 ........................................................................................................................
   1   1.0000E-10  2.0000E-10   0.000       0.000       0.000       0.000       0.000       0.000       0.000       0.000    
   2   2.0000E-10  1.0000E-10  2.0000E-10   0.000       0.000      8.0000E-10  8.0000E-10  5.0000E-10   0.000       0.000    
   3    0.000      5.0000E-10  1.0000E-10  1.0000E-10  8.0000E-10  8.0000E-10  5.0000E-10  5.0000E-10   0.000       0.000    
   4   8.0000E-10  5.0000E-10  1.0000E-10  1.0000E-10  1.0000E-10  1.0000E-10  1.0000E-10  1.0000E-10  2.0000E-10   0.000    
   5   8.0000E-10  5.0000E-10  1.0000E-10  1.0000E-10  1.0000E-10  1.0000E-10  1.0000E-10  1.0000E-10  1.0000E-10  1.0000E-10
   6   8.0000E-10  5.0000E-10  5.0000E-10  2.0000E-10  2.0000E-10  1.0000E-10  1.0000E-10  1.0000E-10  1.0000E-10  5.0000E-10
   7   8.0000E-10  5.0000E-10  5.0000E-10  2.0000E-10  2.0000E-10  1.0000E-10  1.0000E-10  2.0000E-10  2.0000E-10   0.000    
   8    0.000      5.0000E-10  5.0000E-10  2.0000E-10  2.0000E-10  1.0000E-10  1.0000E-10  2.0000E-10  5.0000E-10   0.000    
   9    0.000      5.0000E-10  5.0000E-10  2.0000E-10  2.0000E-10  1.0000E-10  1.0000E-10  2.0000E-10  5.0000E-10   0.000    
  10    0.000      5.0000E-10  5.0000E-10  2.0000E-10  2.0000E-10  1.0000E-10  1.0000E-10  2.0000E-10  5.0000E-10  8.0000E-10
  11    0.000      1.0000E-10  1.0000E-10  1.0000E-10  1.0000E-10  1.0000E-10  1.0000E-10  2.0000E-10  5.0000E-10   0.000    
  12   1.0000E-10  1.0000E-10  1.0000E-10  1.0000E-10  1.0000E-10  1.0000E-10  1.0000E-10  1.0000E-10  2.0000E-10   0.000    
  13   1.0000E-10  1.0000E-10  2.0000E-10  2.0000E-10  2.0000E-10  2.0000E-10  2.0000E-10  1.0000E-10  1.0000E-10   0.000    
  14    0.000      2.0000E-10  5.0000E-10  5.0000E-10  5.0000E-10  5.0000E-10  5.0000E-10  2.0000E-10  1.0000E-10   0.000    
  15    0.000       0.000      8.0000E-10  8.0000E-10  8.0000E-10  8.0000E-10   0.000       0.000       0.000       0.000    

                  ET RATE =  5.000000E-10

 USING ET EXTINCTION DEPTH FROM PREVIOUS STRESS PERIOD. CURRENT PERIOD IS:      13

 USING EXTINCTION WATER CONTENT FROM PREVIOUS STRESS PERIOD. CURRENT PERIOD IS:      13

 USING AIR ENTRY PRESSURE FROM PREVIOUS STRESS PERIOD. CURRENT PERIOD IS:      13

 USING ROOT PRESSURE HEAD FROM PREVIOUS STRESS PERIOD. CURRENT PERIOD IS:      13

 USING ROOT ACTIVITY FROM PREVIOUS STRESS PERIOD. CURRENT PERIOD IS:      13

 PROCESSING AG STRESS PERIOD DATA

 READING AG STRESS PERIOD DATA

 READING IRRIGATION SEGMENT

 READING IRRIGATION WELL

 READING SUPPLEMENTAL WELL

 END PROCESSING AG STRESS PERIOD DATA OPTIONS
 
 SOLVING FOR HEAD 
                                                   Max.-Head-Change                         Max.-Flux-Residual
  Residual-Control   Outer-Iter.   Inner-Iter.     Column Row Layer    Maximum-Head-Change  Column Row Layer    Maximum-Flux-Residual          L2-NORM 
          0                 1           2             4    7     1       0.2382260940E-01       4    7    1         0.1254180326E+01      0.2694430122E+01
          0                 2           2             4    7     1      -0.2317302733E-02       4    7    1        -0.1254188727E+00      0.2694379117E+00
          0                 3           2             4    7     1       0.1577996037E-03       4    7    1         0.8779316931E-02      0.1886014596E-01
          0                 4           1             4    7     1      -0.6278994507E-05       4    7    1        -0.3590746014E-03      0.7713444666E-03

    ------------------------------------------------
       NWT REQUIRED            4 OUTER ITERATIONS 
       AND A TOTAL OF          7 INNER ITERATIONS.
    ------------------------------------------------

 NO OUTPUT CONTROL FOR STRESS PERIOD   13   TIME STEP    1
 
 SOLVING FOR HEAD 
                                                   Max.-Head-Change                         Max.-Flux-Residual
  Residual-Control   Outer-Iter.   Inner-Iter.     Column Row Layer    Maximum-Head-Change  Column Row Layer    Maximum-Flux-Residual          L2-NORM 
          0                 1           2             4    7     1       0.2351254783E-01       4    7    1         0.1237784506E+01      0.2664710190E+01
          0                 2           2             4    7     1      -0.2287141874E-02       4    7    1        -0.1237792689E+00      0.2664664002E+00
          0                 3           2             4    7     1       0.1557457642E-03       4    7    1         0.8664544835E-02      0.1865216350E-01
          0                 4           1             4    7     1      -0.6197270029E-05       4    7    1        -0.3543804028E-03      0.7628464087E-03

    ------------------------------------------------
       NWT REQUIRED            4 OUTER ITERATIONS 
       AND A TOTAL OF          7 INNER ITERATIONS.
    ------------------------------------------------

 NO OUTPUT CONTROL FOR STRESS PERIOD   13   TIME STEP    2
 
 SOLVING FOR HEAD 
                                                   Max.-Head-Change                         Max.-Flux-Residual
  Residual-Control   Outer-Iter.   Inner-Iter.     Column Row Layer    Maximum-Head-Change  Column Row Layer    Maximum-Flux-Residual          L2-NORM 
          0                 1           2             4    7     1       0.2320783359E-01       4    7    1         0.1221671564E+01      0.2635501611E+01
          0                 2           2             4    7     1      -0.2257501175E-02       4    7    1        -0.1221679536E+00      0.2635459230E+00
          0                 3           2             4    7     1       0.1537273452E-03       4    7    1         0.8551752898E-02      0.1844776697E-01
          0                 4           1             4    7     1      -0.6116955173E-05       4    7    1        -0.3497671992E-03      0.7544660011E-03

    ------------------------------------------------
       NWT REQUIRED            4 OUTER ITERATIONS 
       AND A TOTAL OF          7 INNER ITERATIONS.
    ------------------------------------------------

 NO OUTPUT CONTROL FOR STRESS PERIOD   13   TIME STEP    3
 
 SOLVING FOR HEAD 
                                                   Max.-Head-Change                         Max.-Flux-Residual
  Residual-Control   Outer-Iter.   Inner-Iter.     Column Row Layer    Maximum-Head-Change  Column Row Layer    Maximum-Flux-Residual          L2-NORM 
          0                 1           2             4    7     1       0.2290849302E-01       4    7    1         0.1205843196E+01      0.2606801360E+01
          0                 2           2             4    7     1      -0.2228383195E-02       4    7    1        -0.1205850961E+00      0.2606763060E+00
          0                 3           2             4    7     1       0.1517445219E-03       4    7    1         0.8440953032E-02      0.1824693777E-01
          0                 4           1             4    7     1      -0.6038056847E-05       4    7    1        -0.3452354958E-03      0.7462777598E-03

    ------------------------------------------------
       NWT REQUIRED            4 OUTER ITERATIONS 
       AND A TOTAL OF          7 INNER ITERATIONS.
    ------------------------------------------------

 NO OUTPUT CONTROL FOR STRESS PERIOD   13   TIME STEP    4
 
 SOLVING FOR HEAD 
                                                   Max.-Head-Change                         Max.-Flux-Residual
  Residual-Control   Outer-Iter.   Inner-Iter.     Column Row Layer    Maximum-Head-Change  Column Row Layer    Maximum-Flux-Residual          L2-NORM 
          0                 1           2             4    7     1       0.2261427735E-01       4    7    1         0.1190286119E+01      0.2578588900E+01
          0                 2           2             4    7     1      -0.2199763736E-02       4    7    1        -0.1190293684E+00      0.2578553403E+00
          0                 3           2             4    7     1       0.1497956458E-03       4    7    1         0.8332052230E-02      0.1804947870E-01
          0                 4           1             4    7     1      -0.5960509543E-05       4    7    1        -0.3407814479E-03      0.7383817085E-03

    ------------------------------------------------
       NWT REQUIRED            4 OUTER ITERATIONS 
       AND A TOTAL OF          7 INNER ITERATIONS.
    ------------------------------------------------

 NO OUTPUT CONTROL FOR STRESS PERIOD   13   TIME STEP    5
 
 SOLVING FOR HEAD 
                                                   Max.-Head-Change                         Max.-Flux-Residual
  Residual-Control   Outer-Iter.   Inner-Iter.     Column Row Layer    Maximum-Head-Change  Column Row Layer    Maximum-Flux-Residual          L2-NORM 
          0                 1           2             4    7     1       0.2232522063E-01       4    7    1         0.1175002084E+01      0.2550860318E+01
          0                 2           2             4    7     1      -0.2171646111E-02       4    7    1        -0.1175009454E+00      0.2550827671E+00
          0                 3           2             4    7     1       0.1478809425E-03       4    7    1         0.8225062755E-02      0.1785545100E-01
          0                 4           1             4    7     1      -0.5884321666E-05       4    7    1        -0.3364055617E-03      0.7302740474E-03

    ------------------------------------------------
       NWT REQUIRED            4 OUTER ITERATIONS 
       AND A TOTAL OF          7 INNER ITERATIONS.
    ------------------------------------------------

 NO OUTPUT CONTROL FOR STRESS PERIOD   13   TIME STEP    6
 
 SOLVING FOR HEAD 
                                                   Max.-Head-Change                         Max.-Flux-Residual
  Residual-Control   Outer-Iter.   Inner-Iter.     Column Row Layer    Maximum-Head-Change  Column Row Layer    Maximum-Flux-Residual          L2-NORM 
          0                 1           2             4    7     1       0.2204107722E-01       4    7    1         0.1159978207E+01      0.2523594217E+01
          0                 2           2             4    7     1      -0.2144006426E-02       4    7    1        -0.1159985388E+00      0.2523564128E+00
          0                 3           2             4    7     1       0.1459987848E-03       4    7    1         0.8119894413E-02      0.1766462440E-01
          0                 4           1             4    7     1      -0.5809428629E-05       4    7    1        -0.3321041643E-03      0.7224597668E-03

    ------------------------------------------------
       NWT REQUIRED            4 OUTER ITERATIONS 
       AND A TOTAL OF          7 INNER ITERATIONS.
    ------------------------------------------------

 NO OUTPUT CONTROL FOR STRESS PERIOD   13   TIME STEP    7
 
 SOLVING FOR HEAD 
                                                   Max.-Head-Change                         Max.-Flux-Residual
  Residual-Control   Outer-Iter.   Inner-Iter.     Column Row Layer    Maximum-Head-Change  Column Row Layer    Maximum-Flux-Residual          L2-NORM 
          0                 1           2             4    7     1       0.2176188152E-01       4    7    1         0.1145216402E+01      0.2496784002E+01
          0                 2           2             4    7     1      -0.2116848024E-02       4    7    1        -0.1145223399E+00      0.2496756192E+00
          0                 3           2             4    7     1       0.1441494014E-03       4    7    1         0.8016560642E-02      0.1747699853E-01
          0                 4           1             4    7     1      -0.5735839873E-05       4    7    1        -0.3278778070E-03      0.7147915363E-03

    ------------------------------------------------
       NWT REQUIRED            4 OUTER ITERATIONS 
       AND A TOTAL OF          7 INNER ITERATIONS.
    ------------------------------------------------

 NO OUTPUT CONTROL FOR STRESS PERIOD   13   TIME STEP    8
 
 SOLVING FOR HEAD 
                                                   Max.-Head-Change                         Max.-Flux-Residual
  Residual-Control   Outer-Iter.   Inner-Iter.     Column Row Layer    Maximum-Head-Change  Column Row Layer    Maximum-Flux-Residual          L2-NORM 
          0                 1           2             4    7     1       0.2148766265E-01       4    7    1         0.1130718452E+01      0.2470427683E+01
          0                 2           2             4    7     1      -0.2090173742E-02       4    7    1        -0.1130725269E+00      0.2470401878E+00
          0                 3           2             4    7     1       0.1423329841E-03       4    7    1         0.7915073856E-02      0.1729251430E-01
          0                 4           1             4    7     1      -0.5663562996E-05       4    7    1        -0.3237269914E-03      0.7072353542E-03

    ------------------------------------------------
       NWT REQUIRED            4 OUTER ITERATIONS 
       AND A TOTAL OF          7 INNER ITERATIONS.
    ------------------------------------------------

 NO OUTPUT CONTROL FOR STRESS PERIOD   13   TIME STEP    9
 
 SOLVING FOR HEAD 
                                                   Max.-Head-Change                         Max.-Flux-Residual
  Residual-Control   Outer-Iter.   Inner-Iter.     Column Row Layer    Maximum-Head-Change  Column Row Layer    Maximum-Flux-Residual          L2-NORM 
          0                 1           2             4    7     1       0.2121804485E-01       4    7    1         0.1116463892E+01      0.2444502909E+01
          0                 2           2             4    7     1      -0.2063947024E-02       4    7    1        -0.1116470536E+00      0.2444479087E+00
          0                 3           2             4    7     1       0.1405470444E-03       4    7    1         0.7815290838E-02      0.1711109831E-01
          0                 4           1             4    7     1      -0.5592498527E-05       4    7    1        -0.3196458595E-03      0.6998406798E-03

    ------------------------------------------------
       NWT REQUIRED            4 OUTER ITERATIONS 
       AND A TOTAL OF          7 INNER ITERATIONS.
    ------------------------------------------------

 NO OUTPUT CONTROL FOR STRESS PERIOD   13   TIME STEP   10
 
 SOLVING FOR HEAD 
                                                   Max.-Head-Change                         Max.-Flux-Residual
  Residual-Control   Outer-Iter.   Inner-Iter.     Column Row Layer    Maximum-Head-Change  Column Row Layer    Maximum-Flux-Residual          L2-NORM 
          0                 1           2             4    7     1       0.2095306568E-01       4    7    1         0.1102455216E+01      0.2419003413E+01
          0                 2           2             4    7     1      -0.2038171526E-02       4    7    1        -0.1102461690E+00      0.2418980971E+00
          0                 3           2             4    7     1       0.1387918311E-03       4    7    1         0.7717229027E-02      0.1693262226E-01
          0                 4           1             4    7     1      -0.5522657520E-05       4    7    1        -0.3156351490E-03      0.6925265120E-03

    ------------------------------------------------
       NWT REQUIRED            4 OUTER ITERATIONS 
       AND A TOTAL OF          7 INNER ITERATIONS.
    ------------------------------------------------

 NO OUTPUT CONTROL FOR STRESS PERIOD   13   TIME STEP   11
 
 SOLVING FOR HEAD 
                                                   Max.-Head-Change                         Max.-Flux-Residual
  Residual-Control   Outer-Iter.   Inner-Iter.     Column Row Layer    Maximum-Head-Change  Column Row Layer    Maximum-Flux-Residual          L2-NORM 
          0                 1           2             4    7     1       0.2069262817E-01       4    7    1         0.1088687045E+01      0.2393919599E+01
          0                 2           2             4    7     1      -0.2012837814E-02       4    7    1        -0.1088693355E+00      0.2393898331E+00
          0                 3           2             4    7     1       0.1370667014E-03       4    7    1         0.7620850803E-02      0.1675707908E-01
          0                 4           1             4    7     1      -0.5454012688E-05       4    7    1        -0.3116932485E-03      0.6853852368E-03

    ------------------------------------------------
       NWT REQUIRED            4 OUTER ITERATIONS 
       AND A TOTAL OF          7 INNER ITERATIONS.
    ------------------------------------------------

 NO OUTPUT CONTROL FOR STRESS PERIOD   13   TIME STEP   12
 
 SOLVING FOR HEAD 
                                                   Max.-Head-Change                         Max.-Flux-Residual
  Residual-Control   Outer-Iter.   Inner-Iter.     Column Row Layer    Maximum-Head-Change  Column Row Layer    Maximum-Flux-Residual          L2-NORM 
          0                 1           2             4    7     1       0.2043663225E-01       4    7    1         0.1075154351E+01      0.2369241986E+01
          0                 2           2             4    7     1      -0.1987936156E-02       4    7    1        -0.1075160501E+00      0.2369222092E+00
          0                 3           2             4    7     1       0.1353709933E-03       4    7    1         0.7526120946E-02      0.1658434891E-01
          0                 4           1             4    7     1      -0.5386538819E-05       4    7    1        -0.3078187940E-03      0.6783109965E-03

    ------------------------------------------------
       NWT REQUIRED            4 OUTER ITERATIONS 
       AND A TOTAL OF          7 INNER ITERATIONS.
    ------------------------------------------------

 NO OUTPUT CONTROL FOR STRESS PERIOD   13   TIME STEP   13
 
 SOLVING FOR HEAD 
                                                   Max.-Head-Change                         Max.-Flux-Residual
  Residual-Control   Outer-Iter.   Inner-Iter.     Column Row Layer    Maximum-Head-Change  Column Row Layer    Maximum-Flux-Residual          L2-NORM 
          0                 1           2             4    7     1       0.2018498663E-01       4    7    1         0.1061851946E+01      0.2344962100E+01
          0                 2           2             4    7     1      -0.1963457669E-02       4    7    1        -0.1061857941E+00      0.2344943260E+00
          0                 3           2             4    7     1       0.1337041016E-03       4    7    1         0.7433003127E-02      0.1641442553E-01
          0                 4           1             4    7     1      -0.5320211851E-05       4    7    1        -0.3040102899E-03      0.6713405238E-03

    ------------------------------------------------
       NWT REQUIRED            4 OUTER ITERATIONS 
       AND A TOTAL OF          7 INNER ITERATIONS.
    ------------------------------------------------

 NO OUTPUT CONTROL FOR STRESS PERIOD   13   TIME STEP   14
 
 SOLVING FOR HEAD 
                                                   Max.-Head-Change                         Max.-Flux-Residual
  Residual-Control   Outer-Iter.   Inner-Iter.     Column Row Layer    Maximum-Head-Change  Column Row Layer    Maximum-Flux-Residual          L2-NORM 
          0                 1           2             4    7     1       0.1993773087E-01       4    7    1         0.1048782425E+01      0.2321074700E+01
          0                 2           2             4    7     1      -0.1939406202E-02       4    7    1        -0.1048788269E+00      0.2321056707E+00
          0                 3           2             4    7     1       0.1320662882E-03       4    7    1         0.7341515534E-02      0.1624720565E-01
          0                 4           1             4    7     1      -0.5255041801E-05       4    7    1        -0.3002684402E-03      0.6644992540E-03

    ------------------------------------------------
       NWT REQUIRED            4 OUTER ITERATIONS 
       AND A TOTAL OF          7 INNER ITERATIONS.
    ------------------------------------------------

 NO OUTPUT CONTROL FOR STRESS PERIOD   13   TIME STEP   15
 
 SOLVING FOR HEAD 
                                                   Max.-Head-Change                         Max.-Flux-Residual
  Residual-Control   Outer-Iter.   Inner-Iter.     Column Row Layer    Maximum-Head-Change  Column Row Layer    Maximum-Flux-Residual          L2-NORM 
          0                 1           2             4    7     1       0.1969463449E-01       4    7    1         0.1035933183E+01      0.2297564057E+01
          0                 2           2             4    7     1      -0.1915759335E-02       4    7    1        -0.1035938880E+00      0.2297547216E+00
          0                 3           2             4    7     1       0.1304560256E-03       4    7    1         0.7251569898E-02      0.1608263599E-01
          0                 4           1             4    7     1      -0.5190967535E-05       4    7    1        -0.2965896331E-03      0.6577701156E-03

    ------------------------------------------------
       NWT REQUIRED            4 OUTER ITERATIONS 
       AND A TOTAL OF          7 INNER ITERATIONS.
    ------------------------------------------------

 NO OUTPUT CONTROL FOR STRESS PERIOD   13   TIME STEP   16
 
 SOLVING FOR HEAD 
                                                   Max.-Head-Change                         Max.-Flux-Residual
  Residual-Control   Outer-Iter.   Inner-Iter.     Column Row Layer    Maximum-Head-Change  Column Row Layer    Maximum-Flux-Residual          L2-NORM 
          0                 1           2             4    7     1       0.1945561131E-01       4    7    1         0.1023299599E+01      0.2274431536E+01
          0                 2           2             4    7     1      -0.1892508687E-02       4    7    1        -0.1023305153E+00      0.2274415469E+00
          0                 3           2             4    7     1       0.1288727453E-03       4    7    1         0.7163133918E-02      0.1592075213E-01
          0                 4           1             4    7     1      -0.5127967640E-05       4    7    1        -0.2929726168E-03      0.6511536861E-03

    ------------------------------------------------
       NWT REQUIRED            4 OUTER ITERATIONS 
       AND A TOTAL OF          7 INNER ITERATIONS.
    ------------------------------------------------

 NO OUTPUT CONTROL FOR STRESS PERIOD   13   TIME STEP   17
 
 SOLVING FOR HEAD 
                                                   Max.-Head-Change                         Max.-Flux-Residual
  Residual-Control   Outer-Iter.   Inner-Iter.     Column Row Layer    Maximum-Head-Change  Column Row Layer    Maximum-Flux-Residual          L2-NORM 
          0                 1           2             4    7     1       0.1922070636E-01       4    7    1         0.1010884532E+01      0.2251660539E+01
          0                 2           2             4    7     1      -0.1869658635E-02       4    7    1        -0.1010889947E+00      0.2251645165E+00
          0                 3           1             4    7     1       0.1273167453E-03       4    7    1         0.7076227550E-02      0.1576133521E-01
          0                 4           1             4    7     1      -0.5066055125E-05       4    7    1        -0.2894181234E-03      0.6446191690E-03

    ------------------------------------------------
       NWT REQUIRED            4 OUTER ITERATIONS 
       AND A TOTAL OF          6 INNER ITERATIONS.
    ------------------------------------------------

 NO OUTPUT CONTROL FOR STRESS PERIOD   13   TIME STEP   18
 
 SOLVING FOR HEAD 
                                                   Max.-Head-Change                         Max.-Flux-Residual
  Residual-Control   Outer-Iter.   Inner-Iter.     Column Row Layer    Maximum-Head-Change  Column Row Layer    Maximum-Flux-Residual          L2-NORM 
          0                 1           2             4    7     1       0.1898969351E-01       4    7    1         0.9986756601E+00      0.2229241762E+01
          0                 2           2             4    7     1      -0.1847187184E-02       4    7    1        -0.9986809404E-01      0.2229227073E+00
          0                 3           1             4    7     1       0.1257865252E-03       4    7    1         0.6990764610E-02      0.1560443201E-01
          0                 4           1             4    7     1      -0.5005166324E-05       4    7    1        -0.2859226915E-03      0.6382136666E-03

    ------------------------------------------------
       NWT REQUIRED            4 OUTER ITERATIONS 
       AND A TOTAL OF          6 INNER ITERATIONS.
    ------------------------------------------------

 NO OUTPUT CONTROL FOR STRESS PERIOD   13   TIME STEP   19
 
 SOLVING FOR HEAD 
                                                   Max.-Head-Change                         Max.-Flux-Residual
  Residual-Control   Outer-Iter.   Inner-Iter.     Column Row Layer    Maximum-Head-Change  Column Row Layer    Maximum-Flux-Residual          L2-NORM 
          0                 1           2             4    7     1       0.1876262572E-01       4    7    1         0.9866759157E+00      0.2207178261E+01
          0                 2           2             4    7     1      -0.1825099486E-02       4    7    1        -0.9866810649E-01      0.2207164090E+00
          0                 3           1             4    7     1       0.1242824366E-03       4    7    1         0.6906765567E-02      0.1545000088E-01
          0                 4           1             4    7     1      -0.4945317126E-05       4    7    1        -0.2824871190E-03      0.6319025355E-03

    ------------------------------------------------
       NWT REQUIRED            4 OUTER ITERATIONS 
       AND A TOTAL OF          6 INNER ITERATIONS.
    ------------------------------------------------

 NO OUTPUT CONTROL FOR STRESS PERIOD   13   TIME STEP   20
 
 SOLVING FOR HEAD 
                                                   Max.-Head-Change                         Max.-Flux-Residual
  Residual-Control   Outer-Iter.   Inner-Iter.     Column Row Layer    Maximum-Head-Change  Column Row Layer    Maximum-Flux-Residual          L2-NORM 
          0                 1           2             4    7     1       0.1853941583E-01       4    7    1         0.9748807171E+00      0.2185455025E+01
          0                 2           2             4    7     1      -0.1803387062E-02       4    7    1        -0.9748857391E-01      0.2185441075E+00
          0                 3           1             4    7     1       0.1228039028E-03       4    7    1         0.6824198373E-02      0.1529792551E-01
          0                 4           1             4    7     1      -0.4886484850E-05       4    7    1        -0.2791101185E-03      0.6256813703E-03

    ------------------------------------------------
       NWT REQUIRED            4 OUTER ITERATIONS 
       AND A TOTAL OF          6 INNER ITERATIONS.
    ------------------------------------------------

 NO OUTPUT CONTROL FOR STRESS PERIOD   13   TIME STEP   21
 
 SOLVING FOR HEAD 
                                                   Max.-Head-Change                         Max.-Flux-Residual
  Residual-Control   Outer-Iter.   Inner-Iter.     Column Row Layer    Maximum-Head-Change  Column Row Layer    Maximum-Flux-Residual          L2-NORM 
          0                 1           2             4    7     1       0.1831984516E-01       4    7    1         0.9632782157E+00      0.2164066626E+01
          0                 2           2             4    7     1      -0.1782028639E-02       4    7    1        -0.9632831135E-01      0.2164053341E+00
          0                 3           1             4    7     1       0.1213494754E-03       4    7    1         0.6742980075E-02      0.1514823556E-01
          0                 4           1             4    7     1      -0.4828611932E-05       4    7    1        -0.2757883005E-03      0.6195515207E-03

    ------------------------------------------------
       NWT REQUIRED            4 OUTER ITERATIONS 
       AND A TOTAL OF          6 INNER ITERATIONS.
    ------------------------------------------------

 NO OUTPUT CONTROL FOR STRESS PERIOD   13   TIME STEP   22
 
 SOLVING FOR HEAD 
                                                   Max.-Head-Change                         Max.-Flux-Residual
  Residual-Control   Outer-Iter.   Inner-Iter.     Column Row Layer    Maximum-Head-Change  Column Row Layer    Maximum-Flux-Residual          L2-NORM 
          0                 1           2             4    7     1       0.1810397159E-01       4    7    1         0.9518717307E+00      0.2143007961E+01
          0                 2           2             4    7     1      -0.1761029850E-02       4    7    1        -0.9518765080E-01      0.2142957227E+00
          0                 3           1             4    7     1       0.1199195374E-03       4    7    1         0.6663133915E-02      0.1500448606E-01
          0                 4           1             4    7     1      -0.4771713224E-05       4    7    1        -0.2725225806E-03      0.6140205623E-03

    ------------------------------------------------
       NWT REQUIRED            4 OUTER ITERATIONS 
       AND A TOTAL OF          6 INNER ITERATIONS.
    ------------------------------------------------

 NO OUTPUT CONTROL FOR STRESS PERIOD   13   TIME STEP   23
 
 SOLVING FOR HEAD 
                                                   Max.-Head-Change                         Max.-Flux-Residual
  Residual-Control   Outer-Iter.   Inner-Iter.     Column Row Layer    Maximum-Head-Change  Column Row Layer    Maximum-Flux-Residual          L2-NORM 
          0                 1           2             4    7     1       0.1789157815E-01       4    7    1         0.9406496059E+00      0.2122267476E+01
          0                 2           2             4    7     1      -0.1740369562E-02       4    7    1        -0.9406542659E-01      0.2122284422E+00
          0                 3           1             4    7     1       0.1185126265E-03       4    7    1         0.6584578302E-02      0.1485418431E-01
          0                 4           1             4    7     1      -0.4715730932E-05       4    7    1        -0.2693096471E-03      0.6075267404E-03

    ------------------------------------------------
       NWT REQUIRED            4 OUTER ITERATIONS 
       AND A TOTAL OF          6 INNER ITERATIONS.
    ------------------------------------------------

 NO OUTPUT CONTROL FOR STRESS PERIOD   13   TIME STEP   24
 
 SOLVING FOR HEAD 
                                                   Max.-Head-Change                         Max.-Flux-Residual
  Residual-Control   Outer-Iter.   Inner-Iter.     Column Row Layer    Maximum-Head-Change  Column Row Layer    Maximum-Flux-Residual          L2-NORM 
          0                 1           2             4    7     1       0.1768286243E-01       4    7    1         0.9296225796E+00      0.2101843386E+01
          0                 2           2             4    7     1      -0.1720067799E-02       4    7    1        -0.9296271257E-01      0.2102291424E+00
          0                 3           1             4    7     1       0.1171301771E-03       4    7    1         0.6507388387E-02      0.1471589739E-01
          0                 4           1             4    7     1      -0.4660722158E-05       4    7    1        -0.2661525882E-03      0.6018658496E-03

    ------------------------------------------------
       NWT REQUIRED            4 OUTER ITERATIONS 
       AND A TOTAL OF          6 INNER ITERATIONS.
    ------------------------------------------------

 NO OUTPUT CONTROL FOR STRESS PERIOD   13   TIME STEP   25
 
 SOLVING FOR HEAD 
                                                   Max.-Head-Change                         Max.-Flux-Residual
  Residual-Control   Outer-Iter.   Inner-Iter.     Column Row Layer    Maximum-Head-Change  Column Row Layer    Maximum-Flux-Residual          L2-NORM 
          0                 1           2             4    7     1       0.1747746882E-01       4    7    1         0.9187715383E+00      0.2081687447E+01
          0                 2           2             4    7     1      -0.1700087707E-02       4    7    1        -0.9187759734E-01      0.2081675574E+00
          0                 3           1             4    7     1       0.1157696081E-03       4    7    1         0.6431430394E-02      0.1457160754E-01
          0                 4           1             4    7     1      -0.4606583750E-05       4    7    1        -0.2630458837E-03      0.5959738539E-03

    ------------------------------------------------
       NWT REQUIRED            4 OUTER ITERATIONS 
       AND A TOTAL OF          6 INNER ITERATIONS.
    ------------------------------------------------

 NO OUTPUT CONTROL FOR STRESS PERIOD   13   TIME STEP   26
 
 SOLVING FOR HEAD 
                                                   Max.-Head-Change                         Max.-Flux-Residual
  Residual-Control   Outer-Iter.   Inner-Iter.     Column Row Layer    Maximum-Head-Change  Column Row Layer    Maximum-Flux-Residual          L2-NORM 
          0                 1           2             4    7     1       0.1727546268E-01       4    7    1         0.9081001516E+00      0.2061831521E+01
          0                 2           2             4    7     1      -0.1680437859E-02       4    7    1        -0.9081044788E-01      0.2061819822E+00
          0                 3           1             4    7     1       0.1144315278E-03       4    7    1         0.6356729997E-02      0.1443261059E-01
          0                 4           1             4    7     1      -0.4553339882E-05       4    7    1        -0.2599906318E-03      0.5902770603E-03

    ------------------------------------------------
       NWT REQUIRED            4 OUTER ITERATIONS 
       AND A TOTAL OF          6 INNER ITERATIONS.
    ------------------------------------------------

 NO OUTPUT CONTROL FOR STRESS PERIOD   13   TIME STEP   27
 
 SOLVING FOR HEAD 
                                                   Max.-Head-Change                         Max.-Flux-Residual
  Residual-Control   Outer-Iter.   Inner-Iter.     Column Row Layer    Maximum-Head-Change  Column Row Layer    Maximum-Flux-Residual          L2-NORM 
          0                 1           2             4    7     1       0.1707690429E-01       4    7    1         0.8976116923E+00      0.2042273515E+01
          0                 2           2             4    7     1      -0.1661123387E-02       4    7    1        -0.8976159149E-01      0.2042262236E+00
          0                 3           1             4    7     1       0.1131162856E-03       4    7    1         0.6283310122E-02      0.1429570599E-01
          0                 4           1             4    7     1      -0.4501005523E-05       4    7    1        -0.2569877606E-03      0.5846925456E-03

    ------------------------------------------------
       NWT REQUIRED            4 OUTER ITERATIONS 
       AND A TOTAL OF          6 INNER ITERATIONS.
    ------------------------------------------------

 NO OUTPUT CONTROL FOR STRESS PERIOD   13   TIME STEP   28
 
 SOLVING FOR HEAD 
                                                   Max.-Head-Change                         Max.-Flux-Residual
  Residual-Control   Outer-Iter.   Inner-Iter.     Column Row Layer    Maximum-Head-Change  Column Row Layer    Maximum-Flux-Residual          L2-NORM 
          0                 1           2             4    7     1       0.1688144659E-01       4    7    1         0.8872873317E+00      0.2023006415E+01
          0                 2           2             4    7     1      -0.1642110531E-02       4    7    1        -0.8872914522E-01      0.2022995186E+00
          0                 3           1             4    7     1       0.1118215821E-03       4    7    1         0.6211038944E-02      0.1416085001E-01
          0                 4           1             4    7     1      -0.4449488340E-05       4    7    1        -0.2540318746E-03      0.5791784167E-03

    ------------------------------------------------
       NWT REQUIRED            4 OUTER ITERATIONS 
       AND A TOTAL OF          6 INNER ITERATIONS.
    ------------------------------------------------

 NO OUTPUT CONTROL FOR STRESS PERIOD   13   TIME STEP   29
 
 SOLVING FOR HEAD 
                                                   Max.-Head-Change                         Max.-Flux-Residual
  Residual-Control   Outer-Iter.   Inner-Iter.     Column Row Layer    Maximum-Head-Change  Column Row Layer    Maximum-Flux-Residual          L2-NORM 
          0                 1           2             4    7     1       0.1668929228E-01       4    7    1         0.8771383994E+00      0.2004024939E+01
          0                 2           2             4    7     1      -0.1623419010E-02       4    7    1        -0.8771424210E-01      0.2004013949E+00
          0                 3           1             4    7     1       0.1105487602E-03       4    7    1         0.6139995800E-02      0.1402795761E-01
          0                 4           1             4    7     1      -0.4398841176E-05       4    7    1        -0.2511261882E-03      0.5737308980E-03

    ------------------------------------------------
       NWT REQUIRED            4 OUTER ITERATIONS 
       AND A TOTAL OF          6 INNER ITERATIONS.
    ------------------------------------------------

 NO OUTPUT CONTROL FOR STRESS PERIOD   13   TIME STEP   30



 STREAM LISTING     PERIOD     13   STEP       30

 LAYER ROW COL. STREAM  RCH.  FLOW INTO     FLOW TO   FLOW OUT OF   OVRLND.     DIRECT     STREAM       STREAM     STREAM     STREAM   STREAMBED  STREAMBED
                SEG.NO.  NO.  STRM. RCH.    AQUIFER    STRM. RCH.    RUNOFF     PRECIP       ET          HEAD       DEPTH      WIDTH   CONDCTNC.   GRADIENT

   1    1    1     1     1    8.6249E+00  1.3546E-01   8.4895E+00  0.000E+00  0.000E+00  0.000E+00  1.09390E+03  8.549E-01  7.809E+00  3.514E-02  1.285E+00
   1    2    2     1     2    8.4895E+00  2.0809E-01   8.2814E+00  0.000E+00  0.000E+00  0.000E+00  1.08891E+03  8.492E-01  7.723E+00  5.406E-02  1.283E+00
   1    3    3     1     3    8.2814E+00  1.7583E-01   8.1056E+00  0.000E+00  0.000E+00  0.000E+00  1.08326E+03  8.427E-01  7.626E+00  4.576E-02  1.281E+00
   1    3    4     1     4    8.1056E+00  1.6058E-01   7.9450E+00  0.000E+00  0.000E+00  0.000E+00  1.07824E+03  8.369E-01  7.541E+00  4.185E-02  1.279E+00
   1    4    5     2     1    5.9450E+00  2.7323E-01   5.6717E+00  0.000E+00  0.000E+00  0.000E+00  1.07244E+03  5.030E-01  1.200E+01  7.800E-02  1.168E+00
   1    5    6     2     2    5.6717E+00  2.0942E-01   5.4623E+00  0.000E+00  0.000E+00  0.000E+00  1.06700E+03  4.904E-01  1.200E+01  6.000E-02  1.163E+00
   1    6    6     2     3    5.4623E+00  2.0875E-01   5.2536E+00  0.000E+00  0.000E+00  0.000E+00  1.06227E+03  4.792E-01  1.200E+01  6.000E-02  1.160E+00
   1    7    6     2     4    5.2536E+00  2.0808E-01   5.0455E+00  0.000E+00  0.000E+00  0.000E+00  1.05754E+03  4.680E-01  1.200E+01  6.000E-02  1.156E+00
   1    8    6     2     5    5.0455E+00  2.0739E-01   4.8381E+00  0.000E+00  0.000E+00  0.000E+00  1.05282E+03  4.565E-01  1.200E+01  6.000E-02  1.152E+00
   1    3    5     3     1    2.0000E+00  2.8252E-01   1.7175E+00  0.000E+00  0.000E+00  0.000E+00  1.07555E+03  1.909E+00  9.636E+00  7.227E-02  1.955E+00
   1    3    6     3     2    1.7175E+00  2.4905E-01   1.4684E+00  0.000E+00  0.000E+00  0.000E+00  1.07264E+03  1.727E+00  8.909E+00  6.682E-02  1.864E+00
   1    3    7     3     3    1.4684E+00  1.9718E-01   1.2712E+00  0.000E+00  0.000E+00  0.000E+00  1.06987E+03  1.555E+00  8.218E+00  5.547E-02  1.777E+00
   1    4    8     3     4    1.2712E+00  2.2567E-01   1.0456E+00  0.000E+00  0.000E+00  0.000E+00  1.06682E+03  1.364E+00  7.455E+00  6.709E-02  1.682E+00
   1    5    8     3     5    1.0456E+00  1.5790E-01   8.8768E-01  0.000E+00  0.000E+00  0.000E+00  1.06362E+03  1.164E+00  6.655E+00  4.991E-02  1.582E+00
   1    6    8     3     6    8.8768E-01  5.5980E-02   8.3170E-01  0.000E+00  0.000E+00  0.000E+00  1.06158E+03  1.036E+00  6.145E+00  1.844E-02  1.518E+00
   1    5   10     4     1    1.0000E+01  9.0919E-02   9.9091E+00  0.000E+00  0.000E+00  0.000E+00  1.07836E+03  6.368E-01  1.000E+01  2.500E-02  1.212E+00
   1    5    9     4     2    9.9091E+00  1.8158E-01   9.7275E+00  0.000E+00  0.000E+00  0.000E+00  1.07154E+03  6.315E-01  1.000E+01  5.000E-02  1.211E+00
   1    6    8     4     3    9.7275E+00  1.2689E-01   9.6006E+00  0.000E+00  0.000E+00  0.000E+00  1.06381E+03  6.256E-01  1.000E+01  3.500E-02  1.209E+00
   1    6    8     5     1    1.0432E+01  2.2686E-01   1.0205E+01  0.000E+00  0.000E+00  0.000E+00  1.05868E+03  6.790E-01  1.542E+01  6.166E-02  1.226E+00
   1    7    7     5     2    1.0205E+01  2.7894E-01   9.9265E+00  0.000E+00  0.000E+00  0.000E+00  1.05417E+03  6.732E-01  1.519E+01  7.594E-02  1.224E+00
   1    8    7     5     3    9.9265E+00  1.9221E-01   9.7343E+00  0.000E+00  0.000E+00  0.000E+00  1.04992E+03  6.676E-01  1.497E+01  5.241E-02  1.223E+00
   1    8    6     5     4    9.7343E+00  1.3577E-01   9.5985E+00  0.000E+00  0.000E+00  0.000E+00  1.04691E+03  6.637E-01  1.482E+01  3.706E-02  1.221E+00
   1    9    6     6     1    1.4437E+01  2.3244E-01   1.4204E+01  0.000E+00  0.000E+00  0.000E+00  1.04360E+03  8.741E-01  1.200E+01  6.000E-02  1.291E+00
   1   10    7     6     2    1.4204E+01  2.3193E-01   1.3972E+01  0.000E+00  0.000E+00  0.000E+00  1.03905E+03  8.655E-01  1.200E+01  6.000E-02  1.289E+00
   1   11    7     6     3    1.3972E+01  2.3142E-01   1.3741E+01  0.000E+00  0.000E+00  0.000E+00  1.03449E+03  8.570E-01  1.200E+01  6.000E-02  1.286E+00
   1   12    7     6     4    1.3741E+01  2.3090E-01   1.3510E+01  0.000E+00  0.000E+00  0.000E+00  1.02994E+03  8.484E-01  1.200E+01  6.000E-02  1.283E+00
   1   13    7     6     5    1.3510E+01 -1.5783E-02   1.3526E+01  0.000E+00  0.000E+00  0.000E+00  1.02675E+03  8.443E-01  1.200E+01  2.400E-01 -2.192E-02
   1   14    9     7     1    1.5000E+02  1.3695E+00   1.4863E+02  0.000E+00  0.000E+00  0.000E+00  1.03987E+03  2.288E+00  5.529E+01  5.593E-01  8.162E-01
   1   13    8     7     2    1.4863E+02  1.9211E+00   1.4671E+02  0.000E+00  0.000E+00  0.000E+00  1.03478E+03  2.279E+00  5.525E+01  6.148E-01  1.042E+00
   1   13    7     7     3    1.4671E+02  1.6024E+00   1.4511E+02  0.000E+00  0.000E+00  0.000E+00  1.02969E+03  2.269E+00  5.521E+01  5.584E-01  9.565E-01
   1   13    6     8     1    1.5863E+02  9.8930E-01   1.5764E+02  0.000E+00  0.000E+00  0.000E+00  1.02475E+03  2.873E+00  4.166E+01  4.245E-01  7.768E-01
   1   13    5     8     2    1.5764E+02  2.4982E-01   1.5739E+02  0.000E+00  0.000E+00  0.000E+00  1.01849E+03  2.869E+00  4.160E+01  4.239E-01  1.964E-01
   1   13    4     8     3    1.5739E+02 -2.1640E+00   1.5956E+02  0.000E+00  0.000E+00  0.000E+00  1.01225E+03  2.876E+00  4.169E+01  4.249E+00 -1.698E-01
   1   13    3     8     4    1.5956E+02 -3.5180E+00   1.6308E+02  0.000E+00  0.000E+00  0.000E+00  1.00602E+03  2.895E+00  4.197E+01  4.277E+00 -2.742E-01
   1   13    2     8     5    1.6308E+02 -2.5488E+00   1.6562E+02  0.000E+00  0.000E+00  0.000E+00  9.99790E+02  2.915E+00  4.227E+01  4.307E+00 -1.973E-01
   1   13    1     8     6    1.6562E+02 -1.9739E+00   1.6760E+02  0.000E+00  0.000E+00  0.000E+00  9.94805E+02  2.930E+00  4.248E+01  2.598E+00 -2.533E-01
   1    8    6     9     1    0.0000E+00  0.0000E+00   0.0000E+00  0.000E+00  0.000E+00  0.000E+00  1.07875E+03  0.000E+00  4.000E+00  0.000E+00  1.000E+00
   1    8    5     9     2    0.0000E+00  0.0000E+00   0.0000E+00  0.000E+00  0.000E+00  0.000E+00  1.07825E+03  0.000E+00  4.000E+00  0.000E+00  1.000E+00





UNSATURATED ZONE PACKAGE VOLUMETRIC BUDGET FOR  TIME STEP    30 STRESS PERIOD   13
  ------------------------------------------------------------------------------



     CUMULATIVE VOLUMES      L**3       RATES FOR THIS TIME STEP      L**3/T
     ------------------                 ------------------------

           IN:                                      IN:
           ---                                      ---
        INFILTRATION =   518406930.3677          INFILTRATION =           0.8475

          OUT:                                     OUT:
          ----                                     ----
              UZF ET =   430527064.1907                UZF ET =           0.7500
        UZF RECHARGE =       73224.0000          UZF RECHARGE =       0.0000E+00

            IN - OUT =    87806642.1769              IN - OUT =       9.7500E-02

          STORAGE:                                 STORAGE:
          --------                                 --------
      STORAGE CHANGE =    87806610.9345        STORAGE CHANGE =       9.7500E-02

 PERCENT DISCREPANCY IS DIFFERENCE BETWEEN IN-OUT MINUS CHANGE IN STORAGE
 DIVIDED BY THE AVERAGE OF IN AND OUT TIMES 100

 PERCENT DISCREPANCY =           0.00     PERCENT DISCREPANCY =           0.00






1
  VOLUMETRIC BUDGET FOR AGRICULTURAL FIELDS AT  END OF TIME STEP   30, STRESS PERIOD  13
  ------------------------------------------------------------------------------

     CUMULATIVE VOLUMES      L**3       RATES FOR THIS TIME STEP      L**3/T
     ------------------                 ------------------------

           IN:                                      IN:
           ---                                      ---
               AG WELLS  =   300639168.0000                 AG WELLS  =           0.0000
      DIVERSION SEGMENTS =   190946272.0000        DIVERSION SEGMENTS =           0.0000
           GW IRRIGATION =           0.0000             GW IRRIGATION =           0.0000
           SW IRRIGATION =           0.0000             SW IRRIGATION =           0.0000
        SYSTEM LOSSES GW =           0.0000          SYSTEM LOSSES GW =           0.0000
        SYSTEM LOSSES SW =           0.0000          SYSTEM LOSSES SW =           0.0000

                TOTAL IN =   491585440.0000                  TOTAL IN =           0.0000

          OUT:                                     OUT:
          ----                                     ----
               AG WELLS  =           0.0000                 AG WELLS  =           0.0000
      DIVERSION SEGMENTS =           0.0000        DIVERSION SEGMENTS =           0.0000
           GW IRRIGATION =   300639168.0000             GW IRRIGATION =           0.0000
           SW IRRIGATION =   190950192.0000             SW IRRIGATION =           0.0000
        SYSTEM LOSSES GW =           0.0000          SYSTEM LOSSES GW =           0.0000
        SYSTEM LOSSES SW =           0.0000          SYSTEM LOSSES SW =           0.0000

               TOTAL OUT =   491589376.0000                 TOTAL OUT =           0.0000

                IN - OUT =       -3936.0000                  IN - OUT =           0.0000

     PERCENT DISCREPANCY =          -0.00         PERCENT DISCREPANCY =           0.00



1
  VOLUMETRIC BUDGET FOR ENTIRE MODEL AT END OF TIME STEP   30, STRESS PERIOD  13
  ------------------------------------------------------------------------------

     CUMULATIVE VOLUMES      L**3       RATES FOR THIS TIME STEP      L**3/T
     ------------------                 ------------------------

           IN:                                      IN:
           ---                                      ---
             STORAGE     =   432363680.0000               STORAGE     =           5.3739
       CONSTANT HEAD     =           0.0000         CONSTANT HEAD     =           0.0000
     HEAD DEP BOUNDS     =     9112121.0000       HEAD DEP BOUNDS     =           0.2881
      STREAM LEAKAGE     =   371006336.0000        STREAM LEAKAGE     =          11.2472
        UZF RECHARGE     =       73223.9531          UZF RECHARGE     =           0.0000
               GW ET     =           0.0000                 GW ET     =           0.0000
     SURFACE LEAKAGE     =           0.0000       SURFACE LEAKAGE     =           0.0000
           AG WELLS      =           0.0000             AG WELLS      =           0.0000

                TOTAL IN =   812555392.0000                  TOTAL IN =          16.9092

          OUT:                                     OUT:
          ----                                     ----
             STORAGE     =   176140688.0000               STORAGE     =           6.4012
       CONSTANT HEAD     =           0.0000         CONSTANT HEAD     =           0.0000
     HEAD DEP BOUNDS     =     9118079.0000       HEAD DEP BOUNDS     =           0.2875
      STREAM LEAKAGE     =   326661728.0000        STREAM LEAKAGE     =          10.2205
        UZF RECHARGE     =           0.0000          UZF RECHARGE     =           0.0000
               GW ET     =           0.0000                 GW ET     =           0.0000
     SURFACE LEAKAGE     =           0.0000       SURFACE LEAKAGE     =           0.0000
           AG WELLS      =   300639168.0000             AG WELLS      =           0.0000

               TOTAL OUT =   812559680.0000                 TOTAL OUT =          16.9092

                IN - OUT =       -4288.0000                  IN - OUT =       7.6294E-06

     PERCENT DISCREPANCY =          -0.00         PERCENT DISCREPANCY =           0.00






         TIME SUMMARY AT END OF TIME STEP   30 IN STRESS PERIOD   13
                    SECONDS     MINUTES      HOURS       DAYS        YEARS
                    -----------------------------------------------------------
   TIME STEP LENGTH  87667.      1461.1      24.352      1.0147     2.77799E-03
 STRESS PERIOD TIME 2.63000E+06  43833.      730.56      30.440     8.33397E-02
         TOTAL TIME 3.16463E+07 5.27439E+05  8790.6      366.28      1.0028    
1
1
                            STRESS PERIOD NO.   14, LENGTH =   2630000.    
                            -----------------------------------------------

                              NUMBER OF TIME STEPS =    30

                               MULTIPLIER FOR DELT =     1.000

                            INITIAL TIME STEP SIZE =   87666.66    

 REUSING NON-PARAMETER GHB CELLS FROM LAST STRESS PERIOD

      2 GHB CELLS

 REUSING STREAM SEGMENT DATA FROM LAST STRESS PERIOD



            AREAL INFILTRATION RATE
 READING ON UNIT   19 WITH FORMAT: (FREE)              

            1           2           3           4           5           6           7           8           9          10
 ........................................................................................................................
   1   1.0000E-10  2.0000E-10   0.000       0.000       0.000       0.000       0.000       0.000       0.000       0.000    
   2   2.0000E-10  1.0000E-10  2.0000E-10   0.000       0.000      8.0000E-10  8.0000E-10  5.0000E-10   0.000       0.000    
   3    0.000      5.0000E-10  1.0000E-10  1.0000E-10  8.0000E-10  8.0000E-10  5.0000E-10  5.0000E-10   0.000       0.000    
   4   8.0000E-10  5.0000E-10  1.0000E-10  1.0000E-10  1.0000E-10  1.0000E-10  1.0000E-10  1.0000E-10  2.0000E-10   0.000    
   5   8.0000E-10  5.0000E-10  1.0000E-10  1.0000E-10  1.0000E-10  1.0000E-10  1.0000E-10  1.0000E-10  1.0000E-10  1.0000E-10
   6   8.0000E-10  5.0000E-10  5.0000E-10  2.0000E-10  2.0000E-10  1.0000E-10  1.0000E-10  1.0000E-10  1.0000E-10  5.0000E-10
   7   8.0000E-10  5.0000E-10  5.0000E-10  2.0000E-10  2.0000E-10  1.0000E-10  1.0000E-10  2.0000E-10  2.0000E-10   0.000    
   8    0.000      5.0000E-10  5.0000E-10  2.0000E-10  2.0000E-10  1.0000E-10  1.0000E-10  2.0000E-10  5.0000E-10   0.000    
   9    0.000      5.0000E-10  5.0000E-10  2.0000E-10  2.0000E-10  1.0000E-10  1.0000E-10  2.0000E-10  5.0000E-10   0.000    
  10    0.000      5.0000E-10  5.0000E-10  2.0000E-10  2.0000E-10  1.0000E-10  1.0000E-10  2.0000E-10  5.0000E-10  8.0000E-10
  11    0.000      1.0000E-10  1.0000E-10  1.0000E-10  1.0000E-10  1.0000E-10  1.0000E-10  2.0000E-10  5.0000E-10   0.000    
  12   1.0000E-10  1.0000E-10  1.0000E-10  1.0000E-10  1.0000E-10  1.0000E-10  1.0000E-10  1.0000E-10  2.0000E-10   0.000    
  13   1.0000E-10  1.0000E-10  2.0000E-10  2.0000E-10  2.0000E-10  2.0000E-10  2.0000E-10  1.0000E-10  1.0000E-10   0.000    
  14    0.000      2.0000E-10  5.0000E-10  5.0000E-10  5.0000E-10  5.0000E-10  5.0000E-10  2.0000E-10  1.0000E-10   0.000    
  15    0.000       0.000      8.0000E-10  8.0000E-10  8.0000E-10  8.0000E-10   0.000       0.000       0.000       0.000    

                  ET RATE =  5.000000E-10

 USING ET EXTINCTION DEPTH FROM PREVIOUS STRESS PERIOD. CURRENT PERIOD IS:      14

 USING EXTINCTION WATER CONTENT FROM PREVIOUS STRESS PERIOD. CURRENT PERIOD IS:      14

 USING AIR ENTRY PRESSURE FROM PREVIOUS STRESS PERIOD. CURRENT PERIOD IS:      14

 USING ROOT PRESSURE HEAD FROM PREVIOUS STRESS PERIOD. CURRENT PERIOD IS:      14

 USING ROOT ACTIVITY FROM PREVIOUS STRESS PERIOD. CURRENT PERIOD IS:      14

 PROCESSING AG STRESS PERIOD DATA

 READING AG STRESS PERIOD DATA

 READING IRRIGATION SEGMENT

 READING IRRIGATION WELL

 READING SUPPLEMENTAL WELL

 END PROCESSING AG STRESS PERIOD DATA OPTIONS
 
 SOLVING FOR HEAD 
                                                   Max.-Head-Change                         Max.-Flux-Residual
  Residual-Control   Outer-Iter.   Inner-Iter.     Column Row Layer    Maximum-Head-Change  Column Row Layer    Maximum-Flux-Residual          L2-NORM 
          0                 1           2             4    7     1       0.1650009144E-01       4    7    1         0.8671460803E+00      0.1986906257E+01
          0                 2           2             4    7     1      -0.1605014786E-02       4    7    1        -0.8671500055E-01      0.1986871050E+00
          0                 3           1             4    7     1       0.1092955025E-03       4    7    1         0.6070048965E-02      0.1390776462E-01
          0                 4           1             4    7     1      -0.4348973080E-05       4    7    1        -0.2482653699E-03      0.5688047361E-03

    ------------------------------------------------
       NWT REQUIRED            4 OUTER ITERATIONS 
       AND A TOTAL OF          6 INNER ITERATIONS.
    ------------------------------------------------

 NO OUTPUT CONTROL FOR STRESS PERIOD   14   TIME STEP    1
 
 SOLVING FOR HEAD 
                                                   Max.-Head-Change                         Max.-Flux-Residual
  Residual-Control   Outer-Iter.   Inner-Iter.     Column Row Layer    Maximum-Head-Change  Column Row Layer    Maximum-Flux-Residual          L2-NORM 
          0                 1           2             4    7     1       0.1631404201E-01       4    7    1         0.8573215576E+00      0.1971567134E+01
          0                 2           2             4    7     1      -0.1586917110E-02       4    7    1        -0.8573253893E-01      0.1971471722E+00
          0                 3           1             4    7     1       0.1080631188E-03       4    7    1         0.6001276701E-02      0.1379943300E-01
          0                 4           1             4    7     1      -0.4299935054E-05       4    7    1        -0.2454525666E-03      0.5643414454E-03

    ------------------------------------------------
       NWT REQUIRED            4 OUTER ITERATIONS 
       AND A TOTAL OF          6 INNER ITERATIONS.
    ------------------------------------------------

 NO OUTPUT CONTROL FOR STRESS PERIOD   14   TIME STEP    2
 
 SOLVING FOR HEAD 
                                                   Max.-Head-Change                         Max.-Flux-Residual
  Residual-Control   Outer-Iter.   Inner-Iter.     Column Row Layer    Maximum-Head-Change  Column Row Layer    Maximum-Flux-Residual          L2-NORM 
          0                 1           2             4    7     1       0.1613093674E-01       4    7    1         0.8476530984E+00      0.1953234552E+01
          0                 2           2             4    7     1      -0.1569105825E-02       4    7    1        -0.8476568391E-01      0.1953148121E+00
          0                 3           1             4    7     1       0.1068502373E-03       4    7    1         0.5933596886E-02      0.1367124158E-01
          0                 4           1             4    7     1      -0.4251673219E-05       4    7    1        -0.2426844615E-03      0.5591096188E-03

    ------------------------------------------------
       NWT REQUIRED            4 OUTER ITERATIONS 
       AND A TOTAL OF          6 INNER ITERATIONS.
    ------------------------------------------------

 NO OUTPUT CONTROL FOR STRESS PERIOD   14   TIME STEP    3
 
 SOLVING FOR HEAD 
                                                   Max.-Head-Change                         Max.-Flux-Residual
  Residual-Control   Outer-Iter.   Inner-Iter.     Column Row Layer    Maximum-Head-Change  Column Row Layer    Maximum-Flux-Residual          L2-NORM 
          0                 1           2             4    7     1       0.1595071241E-01       4    7    1         0.8381372897E+00      0.1935172249E+01
          0                 2           2             4    7     1      -0.1551574782E-02       4    7    1        -0.8381409418E-01      0.1935093364E+00
          0                 3           1             4    7     1       0.1056564399E-03       4    7    1         0.5866985674E-02      0.1354493286E-01
          0                 4           1             4    7     1      -0.4204171110E-05       4    7    1        -0.2399600630E-03      0.5539552260E-03

    ------------------------------------------------
       NWT REQUIRED            4 OUTER ITERATIONS 
       AND A TOTAL OF          6 INNER ITERATIONS.
    ------------------------------------------------

 NO OUTPUT CONTROL FOR STRESS PERIOD   14   TIME STEP    4
 
 SOLVING FOR HEAD 
                                                   Max.-Head-Change                         Max.-Flux-Residual
  Residual-Control   Outer-Iter.   Inner-Iter.     Column Row Layer    Maximum-Head-Change  Column Row Layer    Maximum-Flux-Residual          L2-NORM 
          0                 1           2             4    7     1       0.1577344260E-01       4    7    1         0.8287781866E+00      0.1917394548E+01
          0                 2           2             4    7     1      -0.1534331135E-02       4    7    1        -0.8287817526E-01      0.1917322431E+00
          0                 3           1             4    7     1       0.1044822127E-03       4    7    1         0.5801471398E-02      0.1342059259E-01
          0                 4           1             4    7     1      -0.4157447610E-05       4    7    1        -0.2372805293E-03      0.5488770317E-03

    ------------------------------------------------
       NWT REQUIRED            4 OUTER ITERATIONS 
       AND A TOTAL OF          6 INNER ITERATIONS.
    ------------------------------------------------

 NO OUTPUT CONTROL FOR STRESS PERIOD   14   TIME STEP    5
 
 SOLVING FOR HEAD 
                                                   Max.-Head-Change                         Max.-Flux-Residual
  Residual-Control   Outer-Iter.   Inner-Iter.     Column Row Layer    Maximum-Head-Change  Column Row Layer    Maximum-Flux-Residual          L2-NORM 
          0                 1           2             4    7     1       0.1559893010E-01       4    7    1         0.8195649378E+00      0.1899877884E+01
          0                 2           2             4    7     1      -0.1517355703E-02       4    7    1        -0.8195684197E-01      0.1899812300E+00
          0                 3           1             4    7     1       0.1033262500E-03       4    7    1         0.5736978127E-02      0.1329807341E-01
          0                 4           1             4    7     1      -0.4111450564E-05       4    7    1        -0.2346427520E-03      0.5438410957E-03

    ------------------------------------------------
       NWT REQUIRED            4 OUTER ITERATIONS 
       AND A TOTAL OF          6 INNER ITERATIONS.
    ------------------------------------------------

 NO OUTPUT CONTROL FOR STRESS PERIOD   14   TIME STEP    6
 
 SOLVING FOR HEAD 
                                                   Max.-Head-Change                         Max.-Flux-Residual
  Residual-Control   Outer-Iter.   Inner-Iter.     Column Row Layer    Maximum-Head-Change  Column Row Layer    Maximum-Flux-Residual          L2-NORM 
          0                 1           2             4    7     1       0.1542712008E-01       4    7    1         0.8104946516E+00      0.1882623063E+01
          0                 2           2             4    7     1      -0.1500643152E-02       4    7    1        -0.8104980519E-01      0.1882562428E+00
          0                 3           1             4    7     1       0.1021881881E-03       4    7    1         0.5673485597E-02      0.1317738287E-01
          0                 4           1             4    7     1      -0.4066165929E-05       4    7    1        -0.2320458907E-03      0.5389188362E-03

    ------------------------------------------------
       NWT REQUIRED            4 OUTER ITERATIONS 
       AND A TOTAL OF          6 INNER ITERATIONS.
    ------------------------------------------------

 NO OUTPUT CONTROL FOR STRESS PERIOD   14   TIME STEP    7
 
 SOLVING FOR HEAD 
                                                   Max.-Head-Change                         Max.-Flux-Residual
  Residual-Control   Outer-Iter.   Inner-Iter.     Column Row Layer    Maximum-Head-Change  Column Row Layer    Maximum-Flux-Residual          L2-NORM 
          0                 1           2             4    7     1       0.1525808733E-01       4    7    1         0.8015718181E+00      0.1865620010E+01
          0                 2           2             4    7     1      -0.1484200757E-02       4    7    1        -0.8015751389E-01      0.1865564386E+00
          0                 3           1             4    7     1       0.1010685237E-03       4    7    1         0.5611025266E-02      0.1305844334E-01
          0                 4           1             4    7     1      -0.4021613850E-05       4    7    1        -0.2294912781E-03      0.5341610710E-03

    ------------------------------------------------
       NWT REQUIRED            4 OUTER ITERATIONS 
       AND A TOTAL OF          6 INNER ITERATIONS.
    ------------------------------------------------

 NO OUTPUT CONTROL FOR STRESS PERIOD   14   TIME STEP    8
 
 SOLVING FOR HEAD 
                                                   Max.-Head-Change                         Max.-Flux-Residual
  Residual-Control   Outer-Iter.   Inner-Iter.     Column Row Layer    Maximum-Head-Change  Column Row Layer    Maximum-Flux-Residual          L2-NORM 
          0                 1           2             4    7     1       0.1509163669E-01       4    7    1         0.7927856488E+00      0.1848867656E+01
          0                 2           2             4    7     1      -0.1468009535E-02       4    7    1        -0.7927888922E-01      0.1848815833E+00
          0                 3           1             4    7     1       0.9996596208E-04       4    7    1         0.5549521570E-02      0.1294124198E-01

    ------------------------------------------------
       NWT REQUIRED            3 OUTER ITERATIONS 
       AND A TOTAL OF          5 INNER ITERATIONS.
    ------------------------------------------------

 NO OUTPUT CONTROL FOR STRESS PERIOD   14   TIME STEP    9
 
 SOLVING FOR HEAD 
                                                   Max.-Head-Change                         Max.-Flux-Residual
  Residual-Control   Outer-Iter.   Inner-Iter.     Column Row Layer    Maximum-Head-Change  Column Row Layer    Maximum-Flux-Residual          L2-NORM 
          0                 1           2             4    7     1       0.1492779422E-01       4    7    1         0.7841377073E+00      0.1832350636E+01
          0                 2           2             4    7     1      -0.1452072018E-02       4    7    1        -0.7841408755E-01      0.1832302381E+00
          0                 3           1             4    7     1       0.9888067739E-04       4    7    1         0.5488985496E-02      0.1282563784E-01

    ------------------------------------------------
       NWT REQUIRED            3 OUTER ITERATIONS 
       AND A TOTAL OF          5 INNER ITERATIONS.
    ------------------------------------------------

 NO OUTPUT CONTROL FOR STRESS PERIOD   14   TIME STEP   10
 
 SOLVING FOR HEAD 
                                                   Max.-Head-Change                         Max.-Flux-Residual
  Residual-Control   Outer-Iter.   Inner-Iter.     Column Row Layer    Maximum-Head-Change  Column Row Layer    Maximum-Flux-Residual          L2-NORM 
          0                 1           2             4    7     1       0.1476642549E-01       4    7    1         0.7756206901E+00      0.1816068210E+01
          0                 2           2             4    7     1      -0.1436375132E-02       4    7    1        -0.7756237848E-01      0.1816023749E+00
          0                 3           1             4    7     1       0.9781177865E-04       4    7    1         0.5429365906E-02      0.1271173236E-01

    ------------------------------------------------
       NWT REQUIRED            3 OUTER ITERATIONS 
       AND A TOTAL OF          5 INNER ITERATIONS.
    ------------------------------------------------

 NO OUTPUT CONTROL FOR STRESS PERIOD   14   TIME STEP   11
 
 SOLVING FOR HEAD 
                                                   Max.-Head-Change                         Max.-Flux-Residual
  Residual-Control   Outer-Iter.   Inner-Iter.     Column Row Layer    Maximum-Head-Change  Column Row Layer    Maximum-Flux-Residual          L2-NORM 
          0                 1           2             4    7     1       0.1460761675E-01       4    7    1         0.7672392668E+00      0.1800020047E+01
          0                 2           2             4    7     1      -0.1420927267E-02       4    7    1        -0.7672422901E-01      0.1799978352E+00
          0                 3           1             4    7     1       0.9675983743E-04       4    7    1         0.5370695494E-02      0.1259946997E-01

    ------------------------------------------------
       NWT REQUIRED            3 OUTER ITERATIONS 
       AND A TOTAL OF          5 INNER ITERATIONS.
    ------------------------------------------------

 NO OUTPUT CONTROL FOR STRESS PERIOD   14   TIME STEP   12
 
 SOLVING FOR HEAD 
                                                   Max.-Head-Change                         Max.-Flux-Residual
  Residual-Control   Outer-Iter.   Inner-Iter.     Column Row Layer    Maximum-Head-Change  Column Row Layer    Maximum-Flux-Residual          L2-NORM 
          0                 1           2             4    7     1       0.1445130792E-01       4    7    1         0.7589905745E+00      0.1784197688E+01
          0                 2           2             4    7     1      -0.1405722577E-02       4    7    1        -0.7589935285E-01      0.1784158442E+00
          0                 3           1             4    7     1       0.9572445565E-04       4    7    1         0.5312954202E-02      0.1248873167E-01

    ------------------------------------------------
       NWT REQUIRED            3 OUTER ITERATIONS 
       AND A TOTAL OF          5 INNER ITERATIONS.
    ------------------------------------------------

 NO OUTPUT CONTROL FOR STRESS PERIOD   14   TIME STEP   13
 
 SOLVING FOR HEAD 
                                                   Max.-Head-Change                         Max.-Flux-Residual
  Residual-Control   Outer-Iter.   Inner-Iter.     Column Row Layer    Maximum-Head-Change  Column Row Layer    Maximum-Flux-Residual          L2-NORM 
          0                 1           2             4    7     1       0.1429731418E-01       4    7    1         0.7508641633E+00      0.1768597749E+01
          0                 2           2             4    7     1      -0.1390743085E-02       4    7    1        -0.7508670495E-01      0.1768561684E+00
          0                 3           1             4    7     1       0.9470440864E-04       4    7    1         0.5256068895E-02      0.1237959923E-01

    ------------------------------------------------
       NWT REQUIRED            3 OUTER ITERATIONS 
       AND A TOTAL OF          5 INNER ITERATIONS.
    ------------------------------------------------

 NO OUTPUT CONTROL FOR STRESS PERIOD   14   TIME STEP   14
 
 SOLVING FOR HEAD 
                                                   Max.-Head-Change                         Max.-Flux-Residual
  Residual-Control   Outer-Iter.   Inner-Iter.     Column Row Layer    Maximum-Head-Change  Column Row Layer    Maximum-Flux-Residual          L2-NORM 
          0                 1           2             4    7     1       0.1414572330E-01       4    7    1         0.7428651203E+00      0.1753214151E+01
          0                 2           2             4    7     1      -0.1375997328E-02       4    7    1        -0.7428679404E-01      0.1753179670E+00
          0                 3           1             4    7     1       0.9370027803E-04       4    7    1         0.5200075163E-02      0.1227193892E-01

    ------------------------------------------------
       NWT REQUIRED            3 OUTER ITERATIONS 
       AND A TOTAL OF          5 INNER ITERATIONS.
    ------------------------------------------------

 NO OUTPUT CONTROL FOR STRESS PERIOD   14   TIME STEP   15
 
 SOLVING FOR HEAD 
                                                   Max.-Head-Change                         Max.-Flux-Residual
  Residual-Control   Outer-Iter.   Inner-Iter.     Column Row Layer    Maximum-Head-Change  Column Row Layer    Maximum-Flux-Residual          L2-NORM 
          0                 1           2             4    7     1       0.1399648358E-01       4    7    1         0.7349906616E+00      0.1738045420E+01
          0                 2           2             4    7     1      -0.1361480278E-02       4    7    1        -0.7349934175E-01      0.1738012815E+00
          0                 3           1             4    7     1       0.9271172170E-04       4    7    1         0.5144953544E-02      0.1216578673E-01

    ------------------------------------------------
       NWT REQUIRED            3 OUTER ITERATIONS 
       AND A TOTAL OF          5 INNER ITERATIONS.
    ------------------------------------------------

 NO OUTPUT CONTROL FOR STRESS PERIOD   14   TIME STEP   16
 
 SOLVING FOR HEAD 
                                                   Max.-Head-Change                         Max.-Flux-Residual
  Residual-Control   Outer-Iter.   Inner-Iter.     Column Row Layer    Maximum-Head-Change  Column Row Layer    Maximum-Flux-Residual          L2-NORM 
          0                 1           2             4    7     1       0.1384954557E-01       4    7    1         0.7272381071E+00      0.1723088554E+01
          0                 2           2             4    7     1      -0.1347187123E-02       4    7    1        -0.7272408006E-01      0.1723058148E+00
          0                 3           1             4    7     1       0.9173841162E-04       4    7    1         0.5090685250E-02      0.1206111940E-01

    ------------------------------------------------
       NWT REQUIRED            3 OUTER ITERATIONS 
       AND A TOTAL OF          5 INNER ITERATIONS.
    ------------------------------------------------

 NO OUTPUT CONTROL FOR STRESS PERIOD   14   TIME STEP   17
 
 SOLVING FOR HEAD 
                                                   Max.-Head-Change                         Max.-Flux-Residual
  Residual-Control   Outer-Iter.   Inner-Iter.     Column Row Layer    Maximum-Head-Change  Column Row Layer    Maximum-Flux-Residual          L2-NORM 
          0                 1           2             4    7     1       0.1370472543E-01       4    7    1         0.7195975559E+00      0.1708333834E+01
          0                 2           2             4    7     1      -0.1333099982E-02       4    7    1        -0.7196001885E-01      0.1708304758E+00
          0                 3           1             4    7     1       0.9077913024E-04       4    7    1         0.5037200990E-02      0.1195786365E-01

    ------------------------------------------------
       NWT REQUIRED            3 OUTER ITERATIONS 
       AND A TOTAL OF          5 INNER ITERATIONS.
    ------------------------------------------------

 NO OUTPUT CONTROL FOR STRESS PERIOD   14   TIME STEP   18
 
 SOLVING FOR HEAD 
                                                   Max.-Head-Change                         Max.-Flux-Residual
  Residual-Control   Outer-Iter.   Inner-Iter.     Column Row Layer    Maximum-Head-Change  Column Row Layer    Maximum-Flux-Residual          L2-NORM 
          0                 1           2             4    7     1       0.1356211807E-01       4    7    1         0.7120741485E+00      0.1693782061E+01
          0                 2           2             4    7     1      -0.1319244163E-02       4    7    1        -0.7120767217E-01      0.1694002441E+00
          0                 3           1             4    7     1       0.8983560124E-04       4    7    1         0.4984536764E-02      0.1185776989E-01

    ------------------------------------------------
       NWT REQUIRED            3 OUTER ITERATIONS 
       AND A TOTAL OF          5 INNER ITERATIONS.
    ------------------------------------------------

 NO OUTPUT CONTROL FOR STRESS PERIOD   14   TIME STEP   19
 
 SOLVING FOR HEAD 
                                                   Max.-Head-Change                         Max.-Flux-Residual
  Residual-Control   Outer-Iter.   Inner-Iter.     Column Row Layer    Maximum-Head-Change  Column Row Layer    Maximum-Flux-Residual          L2-NORM 
          0                 1           2             4    7     1       0.1342158860E-01       4    7    1         0.7046646160E+00      0.1679407051E+01
          0                 2           2             4    7     1      -0.1305558324E-02       4    7    1        -0.7046671327E-01      0.1679380885E+00
          0                 3           1             4    7     1       0.8890364745E-04       4    7    1         0.4932669685E-02      0.1175542059E-01

    ------------------------------------------------
       NWT REQUIRED            3 OUTER ITERATIONS 
       AND A TOTAL OF          5 INNER ITERATIONS.
    ------------------------------------------------

 NO OUTPUT CONTROL FOR STRESS PERIOD   14   TIME STEP   20
 
 SOLVING FOR HEAD 
                                                   Max.-Head-Change                         Max.-Flux-Residual
  Residual-Control   Outer-Iter.   Inner-Iter.     Column Row Layer    Maximum-Head-Change  Column Row Layer    Maximum-Flux-Residual          L2-NORM 
          0                 1           2             4    7     1       0.1328314830E-01       4    7    1         0.6973645251E+00      0.1665185686E+01
          0                 2           2             4    7     1      -0.1292091775E-02       4    7    1        -0.6973669862E-01      0.1665160660E+00
          0                 3           1             4    7     1       0.8798662609E-04       4    7    1         0.4881568681E-02      0.1165590709E-01

    ------------------------------------------------
       NWT REQUIRED            3 OUTER ITERATIONS 
       AND A TOTAL OF          5 INNER ITERATIONS.
    ------------------------------------------------

 NO OUTPUT CONTROL FOR STRESS PERIOD   14   TIME STEP   21
 
 SOLVING FOR HEAD 
                                                   Max.-Head-Change                         Max.-Flux-Residual
  Residual-Control   Outer-Iter.   Inner-Iter.     Column Row Layer    Maximum-Head-Change  Column Row Layer    Maximum-Flux-Residual          L2-NORM 
          0                 1           2             4    7     1       0.1314674421E-01       4    7    1         0.6901719008E+00      0.1651161396E+01
          0                 2           2             4    7     1      -0.1278823297E-02       4    7    1        -0.6901743078E-01      0.1651137178E+00
          0                 3           1             4    7     1       0.8708309298E-04       4    7    1         0.4831219983E-02      0.1155771932E-01

    ------------------------------------------------
       NWT REQUIRED            3 OUTER ITERATIONS 
       AND A TOTAL OF          5 INNER ITERATIONS.
    ------------------------------------------------

 NO OUTPUT CONTROL FOR STRESS PERIOD   14   TIME STEP   22
 
 SOLVING FOR HEAD 
                                                   Max.-Head-Change                         Max.-Flux-Residual
  Residual-Control   Outer-Iter.   Inner-Iter.     Column Row Layer    Maximum-Head-Change  Column Row Layer    Maximum-Flux-Residual          L2-NORM 
          0                 1           2             4    7     1       0.1301233704E-01       4    7    1         0.6830848508E+00      0.1637319305E+01
          0                 2           2             4    7     1      -0.1265749065E-02       4    7    1        -0.6830872050E-01      0.1637296259E+00
          0                 3           1             4    7     1       0.8619278671E-04       4    7    1         0.4781610283E-02      0.1146085796E-01

    ------------------------------------------------
       NWT REQUIRED            3 OUTER ITERATIONS 
       AND A TOTAL OF          5 INNER ITERATIONS.
    ------------------------------------------------

 NO OUTPUT CONTROL FOR STRESS PERIOD   14   TIME STEP   23
 
 SOLVING FOR HEAD 
                                                   Max.-Head-Change                         Max.-Flux-Residual
  Residual-Control   Outer-Iter.   Inner-Iter.     Column Row Layer    Maximum-Head-Change  Column Row Layer    Maximum-Flux-Residual          L2-NORM 
          0                 1           2             4    7     1       0.1287989086E-01       4    7    1         0.6761013377E+00      0.1623671565E+01
          0                 2           2             4    7     1      -0.1252865587E-02       4    7    1        -0.6761036403E-01      0.1623649276E+00
          0                 3           1             4    7     1       0.8531547025E-04       4    7    1         0.4732725349E-02      0.1136532257E-01

    ------------------------------------------------
       NWT REQUIRED            3 OUTER ITERATIONS 
       AND A TOTAL OF          5 INNER ITERATIONS.
    ------------------------------------------------

 NO OUTPUT CONTROL FOR STRESS PERIOD   14   TIME STEP   24
 
 SOLVING FOR HEAD 
                                                   Max.-Head-Change                         Max.-Flux-Residual
  Residual-Control   Outer-Iter.   Inner-Iter.     Column Row Layer    Maximum-Head-Change  Column Row Layer    Maximum-Flux-Residual          L2-NORM 
          0                 1           2             4    7     1       0.1274936837E-01       4    7    1         0.6692194986E+00      0.1610205543E+01
          0                 2           2             4    7     1      -0.1240169233E-02       4    7    1        -0.6692217509E-01      0.1610184171E+00
          0                 3           1             4    7     1       0.8445089628E-04       4    7    1         0.4684552141E-02      0.1127108922E-01

    ------------------------------------------------
       NWT REQUIRED            3 OUTER ITERATIONS 
       AND A TOTAL OF          5 INNER ITERATIONS.
    ------------------------------------------------

 NO OUTPUT CONTROL FOR STRESS PERIOD   14   TIME STEP   25
 
 SOLVING FOR HEAD 
                                                   Max.-Head-Change                         Max.-Flux-Residual
  Residual-Control   Outer-Iter.   Inner-Iter.     Column Row Layer    Maximum-Head-Change  Column Row Layer    Maximum-Flux-Residual          L2-NORM 
          0                 1           2             4    7     1       0.1262073549E-01       4    7    1         0.6624373997E+00      0.1596916514E+01
          0                 2           2             4    7     1      -0.1227656688E-02       4    7    1        -0.6624396028E-01      0.1596895915E+00
          0                 3           1             4    7     1       0.8359883949E-04       4    7    1         0.4637077136E-02      0.1117805752E-01

    ------------------------------------------------
       NWT REQUIRED            3 OUTER ITERATIONS 
       AND A TOTAL OF          5 INNER ITERATIONS.
    ------------------------------------------------

 NO OUTPUT CONTROL FOR STRESS PERIOD   14   TIME STEP   26
 
 SOLVING FOR HEAD 
                                                   Max.-Head-Change                         Max.-Flux-Residual
  Residual-Control   Outer-Iter.   Inner-Iter.     Column Row Layer    Maximum-Head-Change  Column Row Layer    Maximum-Flux-Residual          L2-NORM 
          0                 1           2             4    7     1       0.1249395327E-01       4    7    1         0.6557532739E+00      0.1583799147E+01
          0                 2           2             4    7     1      -0.1215324165E-02       4    7    1        -0.6557554292E-01      0.1583779027E+00
          0                 3           1             4    7     1       0.8275904083E-04       4    7    1         0.4590287953E-02      0.1108624046E-01

    ------------------------------------------------
       NWT REQUIRED            3 OUTER ITERATIONS 
       AND A TOTAL OF          5 INNER ITERATIONS.
    ------------------------------------------------

 NO OUTPUT CONTROL FOR STRESS PERIOD   14   TIME STEP   27
 
 SOLVING FOR HEAD 
                                                   Max.-Head-Change                         Max.-Flux-Residual
  Residual-Control   Outer-Iter.   Inner-Iter.     Column Row Layer    Maximum-Head-Change  Column Row Layer    Maximum-Flux-Residual          L2-NORM 
          0                 1           2             4    7     1       0.1236899152E-01       4    7    1         0.6491651022E+00      0.1570861805E+01
          0                 2           2             4    7     1      -0.1203168724E-02       4    7    1        -0.6491672106E-01      0.1570842238E+00
          0                 3           1             4    7     1       0.8193130079E-04       4    7    1         0.4544170444E-02      0.1099570920E-01

    ------------------------------------------------
       NWT REQUIRED            3 OUTER ITERATIONS 
       AND A TOTAL OF          5 INNER ITERATIONS.
    ------------------------------------------------

 NO OUTPUT CONTROL FOR STRESS PERIOD   14   TIME STEP   28
 
 SOLVING FOR HEAD 
                                                   Max.-Head-Change                         Max.-Flux-Residual
  Residual-Control   Outer-Iter.   Inner-Iter.     Column Row Layer    Maximum-Head-Change  Column Row Layer    Maximum-Flux-Residual          L2-NORM 
          0                 1           2             4    7     1       0.1224581123E-01       4    7    1         0.6426713183E+00      0.1558086596E+01
          0                 2           2             4    7     1      -0.1191186573E-02       4    7    1        -0.6426733810E-01      0.1558067818E+00
          0                 3           1             4    7     1       0.8111536153E-04       4    7    1         0.4498713658E-02      0.1090629033E-01

    ------------------------------------------------
       NWT REQUIRED            3 OUTER ITERATIONS 
       AND A TOTAL OF          5 INNER ITERATIONS.
    ------------------------------------------------

 NO OUTPUT CONTROL FOR STRESS PERIOD   14   TIME STEP   29
 
 SOLVING FOR HEAD 
                                                   Max.-Head-Change                         Max.-Flux-Residual
  Residual-Control   Outer-Iter.   Inner-Iter.     Column Row Layer    Maximum-Head-Change  Column Row Layer    Maximum-Flux-Residual          L2-NORM 
          0                 1           2             4    7     1       0.1212438224E-01       4    7    1         0.6362699001E+00      0.1545481766E+01
          0                 2           2             4    7     1      -0.1179374776E-02       4    7    1        -0.6362719183E-01      0.1545463921E+00
          0                 3           1             4    7     1       0.8031102268E-04       4    7    1         0.4453903437E-02      0.1081809578E-01

    ------------------------------------------------
       NWT REQUIRED            3 OUTER ITERATIONS 
       AND A TOTAL OF          5 INNER ITERATIONS.
    ------------------------------------------------

 NO OUTPUT CONTROL FOR STRESS PERIOD   14   TIME STEP   30



 STREAM LISTING     PERIOD     14   STEP       30

 LAYER ROW COL. STREAM  RCH.  FLOW INTO     FLOW TO   FLOW OUT OF   OVRLND.     DIRECT     STREAM       STREAM     STREAM     STREAM   STREAMBED  STREAMBED
                SEG.NO.  NO.  STRM. RCH.    AQUIFER    STRM. RCH.    RUNOFF     PRECIP       ET          HEAD       DEPTH      WIDTH   CONDCTNC.   GRADIENT

   1    1    1     1     1    7.1251E+00  1.2038E-01   7.0047E+00  0.000E+00  0.000E+00  0.000E+00  1.09385E+03  8.024E-01  7.035E+00  3.166E-02  1.267E+00
   1    2    2     1     2    7.0047E+00  1.8492E-01   6.8198E+00  0.000E+00  0.000E+00  0.000E+00  1.08886E+03  7.976E-01  6.956E+00  4.869E-02  1.266E+00
   1    3    3     1     3    6.8198E+00  1.5635E-01   6.6635E+00  0.000E+00  0.000E+00  0.000E+00  1.08321E+03  7.929E-01  6.870E+00  4.122E-02  1.264E+00
   1    3    4     1     4    6.6635E+00  1.4286E-01   6.5206E+00  0.000E+00  0.000E+00  0.000E+00  1.07820E+03  7.886E-01  6.794E+00  3.771E-02  1.263E+00
   1    4    5     2     1    4.5206E+00  2.6715E-01   4.2534E+00  0.000E+00  0.000E+00  0.000E+00  1.07236E+03  4.251E-01  1.200E+01  7.800E-02  1.142E+00
   1    5    6     2     2    4.2534E+00  2.0467E-01   4.0488E+00  0.000E+00  0.000E+00  0.000E+00  1.06692E+03  4.112E-01  1.200E+01  6.000E-02  1.137E+00
   1    6    6     2     3    4.0488E+00  2.0394E-01   3.8448E+00  0.000E+00  0.000E+00  0.000E+00  1.06219E+03  3.989E-01  1.200E+01  6.000E-02  1.133E+00
   1    7    6     2     4    3.8448E+00  2.0319E-01   3.6417E+00  0.000E+00  0.000E+00  0.000E+00  1.05746E+03  3.865E-01  1.200E+01  6.000E-02  1.129E+00
   1    8    6     2     5    3.6417E+00  2.0242E-01   3.4392E+00  0.000E+00  0.000E+00  0.000E+00  1.05273E+03  3.737E-01  1.200E+01  6.000E-02  1.125E+00
   1    3    5     3     1    2.0000E+00  2.8252E-01   1.7175E+00  0.000E+00  0.000E+00  0.000E+00  1.07555E+03  1.909E+00  9.636E+00  7.227E-02  1.955E+00
   1    3    6     3     2    1.7175E+00  2.4905E-01   1.4684E+00  0.000E+00  0.000E+00  0.000E+00  1.07264E+03  1.727E+00  8.909E+00  6.682E-02  1.864E+00
   1    3    7     3     3    1.4684E+00  1.9718E-01   1.2712E+00  0.000E+00  0.000E+00  0.000E+00  1.06987E+03  1.555E+00  8.218E+00  5.547E-02  1.777E+00
   1    4    8     3     4    1.2712E+00  2.2567E-01   1.0456E+00  0.000E+00  0.000E+00  0.000E+00  1.06682E+03  1.364E+00  7.455E+00  6.709E-02  1.682E+00
   1    5    8     3     5    1.0456E+00  1.5790E-01   8.8768E-01  0.000E+00  0.000E+00  0.000E+00  1.06362E+03  1.164E+00  6.655E+00  4.991E-02  1.582E+00
   1    6    8     3     6    8.8768E-01  5.5980E-02   8.3170E-01  0.000E+00  0.000E+00  0.000E+00  1.06158E+03  1.036E+00  6.145E+00  1.844E-02  1.518E+00
   1    5   10     4     1    1.0000E+01  9.0919E-02   9.9091E+00  0.000E+00  0.000E+00  0.000E+00  1.07836E+03  6.368E-01  1.000E+01  2.500E-02  1.212E+00
   1    5    9     4     2    9.9091E+00  1.8158E-01   9.7275E+00  0.000E+00  0.000E+00  0.000E+00  1.07154E+03  6.315E-01  1.000E+01  5.000E-02  1.211E+00
   1    6    8     4     3    9.7275E+00  1.2689E-01   9.6006E+00  0.000E+00  0.000E+00  0.000E+00  1.06381E+03  6.256E-01  1.000E+01  3.500E-02  1.209E+00
   1    6    8     5     1    1.0432E+01  2.2686E-01   1.0205E+01  0.000E+00  0.000E+00  0.000E+00  1.05868E+03  6.790E-01  1.542E+01  6.166E-02  1.226E+00
   1    7    7     5     2    1.0205E+01  2.7894E-01   9.9265E+00  0.000E+00  0.000E+00  0.000E+00  1.05417E+03  6.732E-01  1.519E+01  7.594E-02  1.224E+00
   1    8    7     5     3    9.9265E+00  1.9221E-01   9.7343E+00  0.000E+00  0.000E+00  0.000E+00  1.04992E+03  6.676E-01  1.497E+01  5.241E-02  1.223E+00
   1    8    6     5     4    9.7343E+00  1.3577E-01   9.5985E+00  0.000E+00  0.000E+00  0.000E+00  1.04691E+03  6.637E-01  1.482E+01  3.706E-02  1.221E+00
   1    9    6     6     1    1.3038E+01  2.2931E-01   1.2808E+01  0.000E+00  0.000E+00  0.000E+00  1.04355E+03  8.218E-01  1.200E+01  6.000E-02  1.274E+00
   1   10    7     6     2    1.2808E+01  2.2878E-01   1.2580E+01  0.000E+00  0.000E+00  0.000E+00  1.03899E+03  8.131E-01  1.200E+01  6.000E-02  1.271E+00
   1   11    7     6     3    1.2580E+01  2.2826E-01   1.2351E+01  0.000E+00  0.000E+00  0.000E+00  1.03444E+03  8.043E-01  1.200E+01  6.000E-02  1.268E+00
   1   12    7     6     4    1.2351E+01  2.2772E-01   1.2124E+01  0.000E+00  0.000E+00  0.000E+00  1.02989E+03  7.954E-01  1.200E+01  6.000E-02  1.265E+00
   1   13    7     6     5    1.2124E+01 -2.3648E-02   1.2147E+01  0.000E+00  0.000E+00  0.000E+00  1.02670E+03  7.914E-01  1.200E+01  2.400E-01 -3.284E-02
   1   14    9     7     1    1.5000E+02  1.3698E+00   1.4863E+02  0.000E+00  0.000E+00  0.000E+00  1.03987E+03  2.288E+00  5.529E+01  5.593E-01  8.164E-01
   1   13    8     7     2    1.4863E+02  1.9244E+00   1.4671E+02  0.000E+00  0.000E+00  0.000E+00  1.03478E+03  2.279E+00  5.525E+01  6.148E-01  1.043E+00
   1   13    7     7     3    1.4671E+02  1.6136E+00   1.4509E+02  0.000E+00  0.000E+00  0.000E+00  1.02969E+03  2.269E+00  5.521E+01  5.584E-01  9.632E-01
   1   13    6     8     1    1.5724E+02  9.9336E-01   1.5625E+02  0.000E+00  0.000E+00  0.000E+00  1.02474E+03  2.864E+00  4.152E+01  4.231E-01  7.825E-01
   1   13    5     8     2    1.5625E+02  2.5617E-01   1.5599E+02  0.000E+00  0.000E+00  0.000E+00  1.01848E+03  2.859E+00  4.146E+01  4.225E-01  2.021E-01
   1   13    4     8     3    1.5599E+02 -2.1380E+00   1.5813E+02  0.000E+00  0.000E+00  0.000E+00  1.01224E+03  2.866E+00  4.155E+01  4.235E+00 -1.683E-01
   1   13    3     8     4    1.5813E+02 -3.5045E+00   1.6163E+02  0.000E+00  0.000E+00  0.000E+00  1.00601E+03  2.885E+00  4.183E+01  4.263E+00 -2.740E-01
   1   13    2     8     5    1.6163E+02 -2.5479E+00   1.6418E+02  0.000E+00  0.000E+00  0.000E+00  9.99780E+02  2.905E+00  4.213E+01  4.293E+00 -1.978E-01
   1   13    1     8     6    1.6418E+02 -1.9746E+00   1.6615E+02  0.000E+00  0.000E+00  0.000E+00  9.94795E+02  2.920E+00  4.235E+01  2.589E+00 -2.542E-01
   1    8    6     9     1    0.0000E+00  0.0000E+00   0.0000E+00  0.000E+00  0.000E+00  0.000E+00  1.07875E+03  0.000E+00  4.000E+00  0.000E+00  1.000E+00
   1    8    5     9     2    0.0000E+00  0.0000E+00   0.0000E+00  0.000E+00  0.000E+00  0.000E+00  1.07825E+03  0.000E+00  4.000E+00  0.000E+00  1.000E+00





UNSATURATED ZONE PACKAGE VOLUMETRIC BUDGET FOR  TIME STEP    30 STRESS PERIOD   14
  ------------------------------------------------------------------------------



     CUMULATIVE VOLUMES      L**3       RATES FOR THIS TIME STEP      L**3/T
     ------------------                 ------------------------

           IN:                                      IN:
           ---                                      ---
        INFILTRATION =   520635855.2404          INFILTRATION =           0.8475

          OUT:                                     OUT:
          ----                                     ----
              UZF ET =   432499564.0614                UZF ET =           0.7500
        UZF RECHARGE =       73224.0000          UZF RECHARGE =       0.0000E+00

            IN - OUT =    88063067.1790              IN - OUT =       9.7500E-02

          STORAGE:                                 STORAGE:
          --------                                 --------
      STORAGE CHANGE =    88063035.9584        STORAGE CHANGE =       9.7500E-02

 PERCENT DISCREPANCY IS DIFFERENCE BETWEEN IN-OUT MINUS CHANGE IN STORAGE
 DIVIDED BY THE AVERAGE OF IN AND OUT TIMES 100

 PERCENT DISCREPANCY =           0.00     PERCENT DISCREPANCY =           0.00






1
  VOLUMETRIC BUDGET FOR AGRICULTURAL FIELDS AT  END OF TIME STEP   30, STRESS PERIOD  14
  ------------------------------------------------------------------------------

     CUMULATIVE VOLUMES      L**3       RATES FOR THIS TIME STEP      L**3/T
     ------------------                 ------------------------

           IN:                                      IN:
           ---                                      ---
               AG WELLS  =   300639168.0000                 AG WELLS  =           0.0000
      DIVERSION SEGMENTS =   190946272.0000        DIVERSION SEGMENTS =           0.0000
           GW IRRIGATION =           0.0000             GW IRRIGATION =           0.0000
           SW IRRIGATION =           0.0000             SW IRRIGATION =           0.0000
        SYSTEM LOSSES GW =           0.0000          SYSTEM LOSSES GW =           0.0000
        SYSTEM LOSSES SW =           0.0000          SYSTEM LOSSES SW =           0.0000

                TOTAL IN =   491585440.0000                  TOTAL IN =           0.0000

          OUT:                                     OUT:
          ----                                     ----
               AG WELLS  =           0.0000                 AG WELLS  =           0.0000
      DIVERSION SEGMENTS =           0.0000        DIVERSION SEGMENTS =           0.0000
           GW IRRIGATION =   300639168.0000             GW IRRIGATION =           0.0000
           SW IRRIGATION =   190950192.0000             SW IRRIGATION =           0.0000
        SYSTEM LOSSES GW =           0.0000          SYSTEM LOSSES GW =           0.0000
        SYSTEM LOSSES SW =           0.0000          SYSTEM LOSSES SW =           0.0000

               TOTAL OUT =   491589376.0000                 TOTAL OUT =           0.0000

                IN - OUT =       -3936.0000                  IN - OUT =           0.0000

     PERCENT DISCREPANCY =          -0.00         PERCENT DISCREPANCY =           0.00



1
  VOLUMETRIC BUDGET FOR ENTIRE MODEL AT END OF TIME STEP   30, STRESS PERIOD  14
  ------------------------------------------------------------------------------

     CUMULATIVE VOLUMES      L**3       RATES FOR THIS TIME STEP      L**3/T
     ------------------                 ------------------------

           IN:                                      IN:
           ---                                      ---
             STORAGE     =   445175936.0000               STORAGE     =           4.3126
       CONSTANT HEAD     =           0.0000         CONSTANT HEAD     =           0.0000
     HEAD DEP BOUNDS     =     9869727.0000       HEAD DEP BOUNDS     =           0.2881
      STREAM LEAKAGE     =   400314080.0000        STREAM LEAKAGE     =          11.1588
        UZF RECHARGE     =       73223.9531          UZF RECHARGE     =           0.0000
               GW ET     =           0.0000                 GW ET     =           0.0000
     SURFACE LEAKAGE     =           0.0000       SURFACE LEAKAGE     =           0.0000
           AG WELLS      =           0.0000             AG WELLS      =           0.0000

                TOTAL IN =   855432960.0000                  TOTAL IN =          15.7595

          OUT:                                     OUT:
          ----                                     ----
             STORAGE     =   191321200.0000               STORAGE     =           5.2838
       CONSTANT HEAD     =           0.0000         CONSTANT HEAD     =           0.0000
     HEAD DEP BOUNDS     =     9873706.0000       HEAD DEP BOUNDS     =           0.2872
      STREAM LEAKAGE     =   353603808.0000        STREAM LEAKAGE     =          10.1887
        UZF RECHARGE     =           0.0000          UZF RECHARGE     =           0.0000
               GW ET     =           0.0000                 GW ET     =           0.0000
     SURFACE LEAKAGE     =           0.0000       SURFACE LEAKAGE     =           0.0000
           AG WELLS      =   300639168.0000             AG WELLS      =           0.0000

               TOTAL OUT =   855437888.0000                 TOTAL OUT =          15.7597

                IN - OUT =       -4928.0000                  IN - OUT =      -2.7370E-04

     PERCENT DISCREPANCY =          -0.00         PERCENT DISCREPANCY =          -0.00






         TIME SUMMARY AT END OF TIME STEP   30 IN STRESS PERIOD   14
                    SECONDS     MINUTES      HOURS       DAYS        YEARS
                    -----------------------------------------------------------
   TIME STEP LENGTH  87667.      1461.1      24.352      1.0147     2.77799E-03
 STRESS PERIOD TIME 2.63000E+06  43833.      730.56      30.440     8.33397E-02
         TOTAL TIME 3.42763E+07 5.71272E+05  9521.2      396.72      1.0862    
1
1
                            STRESS PERIOD NO.   15, LENGTH =   2630000.    
                            -----------------------------------------------

                              NUMBER OF TIME STEPS =    30

                               MULTIPLIER FOR DELT =     1.000

                            INITIAL TIME STEP SIZE =   87666.66    

 REUSING NON-PARAMETER GHB CELLS FROM LAST STRESS PERIOD

      2 GHB CELLS

 REUSING STREAM SEGMENT DATA FROM LAST STRESS PERIOD



            AREAL INFILTRATION RATE
 READING ON UNIT   19 WITH FORMAT: (FREE)              

            1           2           3           4           5           6           7           8           9          10
 ........................................................................................................................
   1   1.0000E-10  2.0000E-10   0.000       0.000       0.000       0.000       0.000       0.000       0.000       0.000    
   2   2.0000E-10  1.0000E-10  2.0000E-10   0.000       0.000      8.0000E-10  8.0000E-10  5.0000E-10   0.000       0.000    
   3    0.000      5.0000E-10  1.0000E-10  1.0000E-10  8.0000E-10  8.0000E-10  5.0000E-10  5.0000E-10   0.000       0.000    
   4   8.0000E-10  5.0000E-10  1.0000E-10  1.0000E-10  1.0000E-10  1.0000E-10  1.0000E-10  1.0000E-10  2.0000E-10   0.000    
   5   8.0000E-10  5.0000E-10  1.0000E-10  1.0000E-10  1.0000E-10  1.0000E-10  1.0000E-10  1.0000E-10  1.0000E-10  1.0000E-10
   6   8.0000E-10  5.0000E-10  5.0000E-10  2.0000E-10  2.0000E-10  1.0000E-10  1.0000E-10  1.0000E-10  1.0000E-10  5.0000E-10
   7   8.0000E-10  5.0000E-10  5.0000E-10  2.0000E-10  2.0000E-10  1.0000E-10  1.0000E-10  2.0000E-10  2.0000E-10   0.000    
   8    0.000      5.0000E-10  5.0000E-10  2.0000E-10  2.0000E-10  1.0000E-10  1.0000E-10  2.0000E-10  5.0000E-10   0.000    
   9    0.000      5.0000E-10  5.0000E-10  2.0000E-10  2.0000E-10  1.0000E-10  1.0000E-10  2.0000E-10  5.0000E-10   0.000    
  10    0.000      5.0000E-10  5.0000E-10  2.0000E-10  2.0000E-10  1.0000E-10  1.0000E-10  2.0000E-10  5.0000E-10  8.0000E-10
  11    0.000      1.0000E-10  1.0000E-10  1.0000E-10  1.0000E-10  1.0000E-10  1.0000E-10  2.0000E-10  5.0000E-10   0.000    
  12   1.0000E-10  1.0000E-10  1.0000E-10  1.0000E-10  1.0000E-10  1.0000E-10  1.0000E-10  1.0000E-10  2.0000E-10   0.000    
  13   1.0000E-10  1.0000E-10  2.0000E-10  2.0000E-10  2.0000E-10  2.0000E-10  2.0000E-10  1.0000E-10  1.0000E-10   0.000    
  14    0.000      2.0000E-10  5.0000E-10  5.0000E-10  5.0000E-10  5.0000E-10  5.0000E-10  2.0000E-10  1.0000E-10   0.000    
  15    0.000       0.000      8.0000E-10  8.0000E-10  8.0000E-10  8.0000E-10   0.000       0.000       0.000       0.000    

                  ET RATE =  5.000000E-10

 USING ET EXTINCTION DEPTH FROM PREVIOUS STRESS PERIOD. CURRENT PERIOD IS:      15

 USING EXTINCTION WATER CONTENT FROM PREVIOUS STRESS PERIOD. CURRENT PERIOD IS:      15

 USING AIR ENTRY PRESSURE FROM PREVIOUS STRESS PERIOD. CURRENT PERIOD IS:      15

 USING ROOT PRESSURE HEAD FROM PREVIOUS STRESS PERIOD. CURRENT PERIOD IS:      15

 USING ROOT ACTIVITY FROM PREVIOUS STRESS PERIOD. CURRENT PERIOD IS:      15

 PROCESSING AG STRESS PERIOD DATA

 READING AG STRESS PERIOD DATA

 READING IRRIGATION SEGMENT

 READING IRRIGATION WELL

 READING SUPPLEMENTAL WELL

 END PROCESSING AG STRESS PERIOD DATA OPTIONS
 
 SOLVING FOR HEAD 
                                                   Max.-Head-Change                         Max.-Flux-Residual
  Residual-Control   Outer-Iter.   Inner-Iter.     Column Row Layer    Maximum-Head-Change  Column Row Layer    Maximum-Flux-Residual          L2-NORM 
          0                 1           2             4    7     1       0.1200480528E-01       4    7    1         0.6299666222E+00      0.1533041575E+01
          0                 2           2             4    7     1      -0.1167743134E-02       4    7    1        -0.6299685970E-01      0.1533023746E+00
          0                 3           1             4    7     1       0.7951895155E-04       4    7    1         0.4409780210E-02      0.1073098215E-01

    ------------------------------------------------
       NWT REQUIRED            3 OUTER ITERATIONS 
       AND A TOTAL OF          5 INNER ITERATIONS.
    ------------------------------------------------

 NO OUTPUT CONTROL FOR STRESS PERIOD   15   TIME STEP    1
 
 SOLVING FOR HEAD 
                                                   Max.-Head-Change                         Max.-Flux-Residual
  Residual-Control   Outer-Iter.   Inner-Iter.     Column Row Layer    Maximum-Head-Change  Column Row Layer    Maximum-Flux-Residual          L2-NORM 
          0                 1           2             4    7     1       0.1188691308E-01       4    7    1         0.6237520309E+00      0.1519718037E+01
          0                 2           2             4    7     1      -0.1156275375E-02       4    7    1        -0.6237539632E-01      0.1519714476E+00
          0                 3           1             4    7     1       0.7873804028E-04       4    7    1         0.4366277804E-02      0.1063796185E-01

    ------------------------------------------------
       NWT REQUIRED            3 OUTER ITERATIONS 
       AND A TOTAL OF          5 INNER ITERATIONS.
    ------------------------------------------------

 NO OUTPUT CONTROL FOR STRESS PERIOD   15   TIME STEP    2
 
 SOLVING FOR HEAD 
                                                   Max.-Head-Change                         Max.-Flux-Residual
  Residual-Control   Outer-Iter.   Inner-Iter.     Column Row Layer    Maximum-Head-Change  Column Row Layer    Maximum-Flux-Residual          L2-NORM 
          0                 1           2             4    7     1       0.1177067905E-01       4    7    1         0.6176247916E+00      0.1506974929E+01
          0                 2           2             4    7     1      -0.1144968912E-02       4    7    1        -0.6176266823E-01      0.1506975253E+00
          0                 3           1             4    7     1       0.7796811278E-04       4    7    1         0.4323386847E-02      0.1054881655E-01

    ------------------------------------------------
       NWT REQUIRED            3 OUTER ITERATIONS 
       AND A TOTAL OF          5 INNER ITERATIONS.
    ------------------------------------------------

 NO OUTPUT CONTROL FOR STRESS PERIOD   15   TIME STEP    3
 
 SOLVING FOR HEAD 
                                                   Max.-Head-Change                         Max.-Flux-Residual
  Residual-Control   Outer-Iter.   Inner-Iter.     Column Row Layer    Maximum-Head-Change  Column Row Layer    Maximum-Flux-Residual          L2-NORM 
          0                 1           2             4    7     1       0.1165607277E-01       4    7    1         0.6115835261E+00      0.1495024738E+01
          0                 2           2             4    7     1      -0.1133820786E-02       4    7    1        -0.6115853764E-01      0.1495024628E+00
          0                 3           1             4    7     1       0.7720896741E-04       4    7    1         0.4281097738E-02      0.1046515972E-01

    ------------------------------------------------
       NWT REQUIRED            3 OUTER ITERATIONS 
       AND A TOTAL OF          5 INNER ITERATIONS.
    ------------------------------------------------

 NO OUTPUT CONTROL FOR STRESS PERIOD   15   TIME STEP    4
 
 SOLVING FOR HEAD 
                                                   Max.-Head-Change                         Max.-Flux-Residual
  Residual-Control   Outer-Iter.   Inner-Iter.     Column Row Layer    Maximum-Head-Change  Column Row Layer    Maximum-Flux-Residual          L2-NORM 
          0                 1           2             4    7     1       0.1154319928E-01       4    7    1         0.6056339955E+00      0.1483232737E+01
          0                 2           2             4    7     1      -0.1125133908E-02       4    7    1        -0.6070802990E-01      0.1483652645E+00
          0                 3           1             4    7     1       0.7661742102E-04       4    7    1         0.4249562044E-02      0.1038555187E-01

    ------------------------------------------------
       NWT REQUIRED            3 OUTER ITERATIONS 
       AND A TOTAL OF          5 INNER ITERATIONS.
    ------------------------------------------------

 NO OUTPUT CONTROL FOR STRESS PERIOD   15   TIME STEP    5
 
 SOLVING FOR HEAD 
                                                   Max.-Head-Change                         Max.-Flux-Residual
  Residual-Control   Outer-Iter.   Inner-Iter.     Column Row Layer    Maximum-Head-Change  Column Row Layer    Maximum-Flux-Residual          L2-NORM 
          0                 1           2             4    7     1       0.1142707425E-01       4    7    1         0.5996446971E+00      0.1471553192E+01
          0                 2           2             4    7     1      -0.1111545564E-02       4    7    1        -0.5996466126E-01      0.1471552355E+00
          0                 3           1             4    7     1       0.7569210616E-04       4    7    1         0.4197526292E-02      0.1030084797E-01

    ------------------------------------------------
       NWT REQUIRED            3 OUTER ITERATIONS 
       AND A TOTAL OF          5 INNER ITERATIONS.
    ------------------------------------------------

 NO OUTPUT CONTROL FOR STRESS PERIOD   15   TIME STEP    6
 
 SOLVING FOR HEAD 
                                                   Max.-Head-Change                         Max.-Flux-Residual
  Residual-Control   Outer-Iter.   Inner-Iter.     Column Row Layer    Maximum-Head-Change  Column Row Layer    Maximum-Flux-Residual          L2-NORM 
          0                 1           2             4    7     1       0.1131503442E-01       4    7    1         0.5937313019E+00      0.1460017841E+01
          0                 2           2             4    7     1      -0.1100647075E-02       4    7    1        -0.5937331714E-01      0.1460016701E+00
          0                 3           1             4    7     1       0.7494996008E-04       4    7    1         0.4156132217E-02      0.1022011889E-01

    ------------------------------------------------
       NWT REQUIRED            3 OUTER ITERATIONS 
       AND A TOTAL OF          5 INNER ITERATIONS.
    ------------------------------------------------

 NO OUTPUT CONTROL FOR STRESS PERIOD   15   TIME STEP    7
 
 SOLVING FOR HEAD 
                                                   Max.-Head-Change                         Max.-Flux-Residual
  Residual-Control   Outer-Iter.   Inner-Iter.     Column Row Layer    Maximum-Head-Change  Column Row Layer    Maximum-Flux-Residual          L2-NORM 
          0                 1           2             4    7     1       0.1120481569E-01       4    7    1         0.5879148394E+00      0.1448630987E+01
          0                 2           2             4    7     1      -0.1089925733E-02       4    7    1        -0.5879166647E-01      0.1448629495E+00
          0                 3           1             4    7     1       0.7421987747E-04       4    7    1         0.4115416701E-02      0.1014039953E-01

    ------------------------------------------------
       NWT REQUIRED            3 OUTER ITERATIONS 
       AND A TOTAL OF          5 INNER ITERATIONS.
    ------------------------------------------------

 NO OUTPUT CONTROL FOR STRESS PERIOD   15   TIME STEP    8
 
 SOLVING FOR HEAD 
                                                   Max.-Head-Change                         Max.-Flux-Residual
  Residual-Control   Outer-Iter.   Inner-Iter.     Column Row Layer    Maximum-Head-Change  Column Row Layer    Maximum-Flux-Residual          L2-NORM 
          0                 1           2             4    7     1       0.1109623583E-01       4    7    1         0.5821854584E+00      0.1437396438E+01
          0                 2           2             4    7     1      -0.1079363809E-02       4    7    1        -0.5821872404E-01      0.1437394414E+00
          0                 3           1             4    7     1       0.7350064988E-04       4    7    1         0.4075310744E-02      0.1006173600E-01

    ------------------------------------------------
       NWT REQUIRED            3 OUTER ITERATIONS 
       AND A TOTAL OF          5 INNER ITERATIONS.
    ------------------------------------------------

 NO OUTPUT CONTROL FOR STRESS PERIOD   15   TIME STEP    9
 
 SOLVING FOR HEAD 
                                                   Max.-Head-Change                         Max.-Flux-Residual
  Residual-Control   Outer-Iter.   Inner-Iter.     Column Row Layer    Maximum-Head-Change  Column Row Layer    Maximum-Flux-Residual          L2-NORM 
          0                 1           2             4    7     1       0.1098926019E-01       4    7    1         0.5765410500E+00      0.1426302900E+01
          0                 2           2             4    7     1      -0.1068957935E-02       4    7    1        -0.5765427900E-01      0.1426300377E+00
          0                 3           1             4    7     1       0.7279204904E-04       4    7    1         0.4035799634E-02      0.9984089549E-02

    ------------------------------------------------
       NWT REQUIRED            3 OUTER ITERATIONS 
       AND A TOTAL OF          5 INNER ITERATIONS.
    ------------------------------------------------

 NO OUTPUT CONTROL FOR STRESS PERIOD   15   TIME STEP   10
 
 SOLVING FOR HEAD 
                                                   Max.-Head-Change                         Max.-Flux-Residual
  Residual-Control   Outer-Iter.   Inner-Iter.     Column Row Layer    Maximum-Head-Change  Column Row Layer    Maximum-Flux-Residual          L2-NORM 
          0                 1           2             4    7     1       0.1088398309E-01       4    7    1         0.5709871581E+00      0.1415349616E+01
          0                 2           2             4    7     1      -0.1058717284E-02       4    7    1        -0.5709888575E-01      0.1415346606E+00
          0                 3           1             4    7     1       0.7209469965E-04       4    7    1         0.3996922131E-02      0.9907465589E-02

    ------------------------------------------------
       NWT REQUIRED            3 OUTER ITERATIONS 
       AND A TOTAL OF          5 INNER ITERATIONS.
    ------------------------------------------------

 NO OUTPUT CONTROL FOR STRESS PERIOD   15   TIME STEP   11
 
 SOLVING FOR HEAD 
                                                   Max.-Head-Change                         Max.-Flux-Residual
  Residual-Control   Outer-Iter.   Inner-Iter.     Column Row Layer    Maximum-Head-Change  Column Row Layer    Maximum-Flux-Residual          L2-NORM 
          0                 1           2             4    7     1       0.1078022678E-01       4    7    1         0.5655139924E+00      0.1404534765E+01
          0                 2           2             4    7     1      -0.1048624565E-02       4    7    1        -0.5655156522E-01      0.1404531359E+00
          0                 3           1             4    7     1       0.7140742295E-04       4    7    1         0.3958609701E-02      0.9831666427E-02

    ------------------------------------------------
       NWT REQUIRED            3 OUTER ITERATIONS 
       AND A TOTAL OF          5 INNER ITERATIONS.
    ------------------------------------------------

 NO OUTPUT CONTROL FOR STRESS PERIOD   15   TIME STEP   12
 
 SOLVING FOR HEAD 
                                                   Max.-Head-Change                         Max.-Flux-Residual
  Residual-Control   Outer-Iter.   Inner-Iter.     Column Row Layer    Maximum-Head-Change  Column Row Layer    Maximum-Flux-Residual          L2-NORM 
          0                 1           2             4    7     1       0.1067809046E-01       4    7    1         0.5601270173E+00      0.1393854133E+01
          0                 2           2             4    7     1      -0.1038689430E-02       4    7    1        -0.5601286390E-01      0.1393850469E+00
          0                 3           1             4    7     1       0.7073087785E-04       4    7    1         0.3920900636E-02      0.9756936681E-02

    ------------------------------------------------
       NWT REQUIRED            3 OUTER ITERATIONS 
       AND A TOTAL OF          5 INNER ITERATIONS.
    ------------------------------------------------

 NO OUTPUT CONTROL FOR STRESS PERIOD   15   TIME STEP   13
 
 SOLVING FOR HEAD 
                                                   Max.-Head-Change                         Max.-Flux-Residual
  Residual-Control   Outer-Iter.   Inner-Iter.     Column Row Layer    Maximum-Head-Change  Column Row Layer    Maximum-Flux-Residual          L2-NORM 
          0                 1           2             4    7     1       0.1057740199E-01       4    7    1         0.5548166956E+00      0.1383308824E+01
          0                 2           2             4    7     1      -0.1028895132E-02       4    7    1        -0.5548182802E-01      0.1383304707E+00
          0                 3           1             4    7     1       0.7006392322E-04       4    7    1         0.3883728143E-02      0.9683093961E-02

    ------------------------------------------------
       NWT REQUIRED            3 OUTER ITERATIONS 
       AND A TOTAL OF          5 INNER ITERATIONS.
    ------------------------------------------------

 NO OUTPUT CONTROL FOR STRESS PERIOD   15   TIME STEP   14
 
 SOLVING FOR HEAD 
                                                   Max.-Head-Change                         Max.-Flux-Residual
  Residual-Control   Outer-Iter.   Inner-Iter.     Column Row Layer    Maximum-Head-Change  Column Row Layer    Maximum-Flux-Residual          L2-NORM 
          0                 1           2             4    7     1       0.1047812635E-01       4    7    1         0.5495814424E+00      0.1372887960E+01
          0                 2           2             4    7     1      -0.1019238266E-02       4    7    1        -0.5495829908E-01      0.1372883481E+00
          0                 3           1             4    7     1       0.6940632677E-04       4    7    1         0.3847081132E-02      0.9610142349E-02

    ------------------------------------------------
       NWT REQUIRED            3 OUTER ITERATIONS 
       AND A TOTAL OF          5 INNER ITERATIONS.
    ------------------------------------------------

 NO OUTPUT CONTROL FOR STRESS PERIOD   15   TIME STEP   15
 
 SOLVING FOR HEAD 
                                                   Max.-Head-Change                         Max.-Flux-Residual
  Residual-Control   Outer-Iter.   Inner-Iter.     Column Row Layer    Maximum-Head-Change  Column Row Layer    Maximum-Flux-Residual          L2-NORM 
          0                 1           2             4    7     1       0.1038037124E-01       4    7    1         0.5444267833E+00      0.1362604458E+01
          0                 2           2             4    7     1      -0.1009729307E-02       4    7    1        -0.5444282965E-01      0.1362599565E+00
          0                 3           1             4    7     1       0.6875880243E-04       4    7    1         0.3810998295E-02      0.9538145108E-02

    ------------------------------------------------
       NWT REQUIRED            3 OUTER ITERATIONS 
       AND A TOTAL OF          5 INNER ITERATIONS.
    ------------------------------------------------

 NO OUTPUT CONTROL FOR STRESS PERIOD   15   TIME STEP   16
 
 SOLVING FOR HEAD 
                                                   Max.-Head-Change                         Max.-Flux-Residual
  Residual-Control   Outer-Iter.   Inner-Iter.     Column Row Layer    Maximum-Head-Change  Column Row Layer    Maximum-Flux-Residual          L2-NORM 
          0                 1           2             4    7     1       0.1028409804E-01       4    7    1         0.5393509610E+00      0.1352447677E+01
          0                 2           2             4    7     1      -0.1000364500E-02       4    7    1        -0.5393524402E-01      0.1352442433E+00
          0                 3           1             4    7     1       0.6812109411E-04       4    7    1         0.3775467313E-02      0.9467044936E-02

    ------------------------------------------------
       NWT REQUIRED            3 OUTER ITERATIONS 
       AND A TOTAL OF          5 INNER ITERATIONS.
    ------------------------------------------------

 NO OUTPUT CONTROL FOR STRESS PERIOD   15   TIME STEP   17
 
 SOLVING FOR HEAD 
                                                   Max.-Head-Change                         Max.-Flux-Residual
  Residual-Control   Outer-Iter.   Inner-Iter.     Column Row Layer    Maximum-Head-Change  Column Row Layer    Maximum-Flux-Residual          L2-NORM 
          0                 1           2             4    7     1       0.1018913779E-01       4    7    1         0.5343446327E+00      0.1342409091E+01
          0                 2           2             4    7     1      -0.9911274081E-03       4    7    1        -0.5343460787E-01      0.1342403541E+00
          0                 3           1             4    7     1       0.6749208317E-04       4    7    1         0.3740422800E-02      0.9396767943E-02

    ------------------------------------------------
       NWT REQUIRED            3 OUTER ITERATIONS 
       AND A TOTAL OF          5 INNER ITERATIONS.
    ------------------------------------------------

 NO OUTPUT CONTROL FOR STRESS PERIOD   15   TIME STEP   18
 
 SOLVING FOR HEAD 
                                                   Max.-Head-Change                         Max.-Flux-Residual
  Residual-Control   Outer-Iter.   Inner-Iter.     Column Row Layer    Maximum-Head-Change  Column Row Layer    Maximum-Flux-Residual          L2-NORM 
          0                 1           2             4    7     1       0.1009559360E-01       4    7    1         0.5294137196E+00      0.1332494076E+01
          0                 2           2             4    7     1      -0.9820280613E-03       4    7    1        -0.5294151333E-01      0.1332488296E+00
          0                 3           1             4    7     1       0.6687245196E-04       4    7    1         0.3705906201E-02      0.9327360432E-02

    ------------------------------------------------
       NWT REQUIRED            3 OUTER ITERATIONS 
       AND A TOTAL OF          5 INNER ITERATIONS.
    ------------------------------------------------

 NO OUTPUT CONTROL FOR STRESS PERIOD   15   TIME STEP   19
 
 SOLVING FOR HEAD 
                                                   Max.-Head-Change                         Max.-Flux-Residual
  Residual-Control   Outer-Iter.   Inner-Iter.     Column Row Layer    Maximum-Head-Change  Column Row Layer    Maximum-Flux-Residual          L2-NORM 
          0                 1           2             4    7     1       0.1000343553E-01       4    7    1         0.5245562272E+00      0.1322699117E+01
          0                 2           2             4    7     1      -0.9730635474E-03       4    7    1        -0.5245576097E-01      0.1322692880E+00
          0                 3           1             4    7     1       0.6626200213E-04       4    7    1         0.3671903546E-02      0.9258791617E-02

    ------------------------------------------------
       NWT REQUIRED            3 OUTER ITERATIONS 
       AND A TOTAL OF          5 INNER ITERATIONS.
    ------------------------------------------------

 NO OUTPUT CONTROL FOR STRESS PERIOD   15   TIME STEP   20
 
 SOLVING FOR HEAD 
                                                   Max.-Head-Change                         Max.-Flux-Residual
  Residual-Control   Outer-Iter.   Inner-Iter.     Column Row Layer    Maximum-Head-Change  Column Row Layer    Maximum-Flux-Residual          L2-NORM 
          0                 1           2             4    7     1       0.9912498804E-02       4    7    1         0.5197632610E+00      0.1313027003E+01
          0                 2           2             4    7     1      -0.9642178391E-03       4    7    1        -0.5197646130E-01      0.1313020570E+00
          0                 3           1             4    7     1       0.6565964238E-04       4    7    1         0.3638352576E-02      0.9191079016E-02

    ------------------------------------------------
       NWT REQUIRED            3 OUTER ITERATIONS 
       AND A TOTAL OF          5 INNER ITERATIONS.
    ------------------------------------------------

 NO OUTPUT CONTROL FOR STRESS PERIOD   15   TIME STEP   21
 
 SOLVING FOR HEAD 
                                                   Max.-Head-Change                         Max.-Flux-Residual
  Residual-Control   Outer-Iter.   Inner-Iter.     Column Row Layer    Maximum-Head-Change  Column Row Layer    Maximum-Flux-Residual          L2-NORM 
          0                 1           2             4    7     1       0.9822755741E-02       4    7    1         0.5150336199E+00      0.1303462589E+01
          0                 2           2             4    7     1      -0.9554882426E-03       4    7    1        -0.5150349423E-01      0.1303455998E+00
          0                 3           1             4    7     1       0.6506518988E-04       4    7    1         0.3605244912E-02      0.9124133159E-02

    ------------------------------------------------
       NWT REQUIRED            3 OUTER ITERATIONS 
       AND A TOTAL OF          5 INNER ITERATIONS.
    ------------------------------------------------

 NO OUTPUT CONTROL FOR STRESS PERIOD   15   TIME STEP   22
 
 SOLVING FOR HEAD 
                                                   Max.-Head-Change                         Max.-Flux-Residual
  Residual-Control   Outer-Iter.   Inner-Iter.     Column Row Layer    Maximum-Head-Change  Column Row Layer    Maximum-Flux-Residual          L2-NORM 
          0                 1           2             4    7     1       0.9734453552E-02       4    7    1         0.5103805522E+00      0.1294022086E+01
          0                 2           2             4    7     1      -0.9468988043E-03       4    7    1        -0.5103818456E-01      0.1294015165E+00
          0                 3           1             4    7     1       0.6448028100E-04       4    7    1         0.3572673223E-02      0.9058044312E-02

    ------------------------------------------------
       NWT REQUIRED            3 OUTER ITERATIONS 
       AND A TOTAL OF          5 INNER ITERATIONS.
    ------------------------------------------------

 NO OUTPUT CONTROL FOR STRESS PERIOD   15   TIME STEP   23
 
 SOLVING FOR HEAD 
                                                   Max.-Head-Change                         Max.-Flux-Residual
  Residual-Control   Outer-Iter.   Inner-Iter.     Column Row Layer    Maximum-Head-Change  Column Row Layer    Maximum-Flux-Residual          L2-NORM 
          0                 1           2             4    7     1       0.9647287828E-02       4    7    1         0.5057875072E+00      0.1284695822E+01
          0                 2           2             4    7     1      -0.9384199150E-03       4    7    1        -0.5057887726E-01      0.1284688695E+00
          0                 3           1             4    7     1       0.6390290094E-04       4    7    1         0.3540521745E-02      0.8992755259E-02

    ------------------------------------------------
       NWT REQUIRED            3 OUTER ITERATIONS 
       AND A TOTAL OF          5 INNER ITERATIONS.
    ------------------------------------------------

 NO OUTPUT CONTROL FOR STRESS PERIOD   15   TIME STEP   24
 
 SOLVING FOR HEAD 
                                                   Max.-Head-Change                         Max.-Flux-Residual
  Residual-Control   Outer-Iter.   Inner-Iter.     Column Row Layer    Maximum-Head-Change  Column Row Layer    Maximum-Flux-Residual          L2-NORM 
          0                 1           2             4    7     1       0.9561231675E-02       4    7    1         0.5012533859E+00      0.1275466941E+01
          0                 2           2             4    7     1      -0.9300489579E-03       4    7    1        -0.5012546243E-01      0.1275459870E+00
          0                 3           1             4    7     1       0.6333287017E-04       4    7    1         0.3508782722E-02      0.8928161447E-02

    ------------------------------------------------
       NWT REQUIRED            3 OUTER ITERATIONS 
       AND A TOTAL OF          5 INNER ITERATIONS.
    ------------------------------------------------

 NO OUTPUT CONTROL FOR STRESS PERIOD   15   TIME STEP   25
 
 SOLVING FOR HEAD 
                                                   Max.-Head-Change                         Max.-Flux-Residual
  Residual-Control   Outer-Iter.   Inner-Iter.     Column Row Layer    Maximum-Head-Change  Column Row Layer    Maximum-Flux-Residual          L2-NORM 
          0                 1           2             4    7     1       0.9476539473E-02       4    7    1         0.4967914793E+00      0.1266358901E+01
          0                 2           2             4    7     1      -0.9218106763E-03       4    7    1        -0.4967926909E-01      0.1266351499E+00
          0                 3           1             4    7     1       0.6277187369E-04       4    7    1         0.3477549187E-02      0.8864390096E-02

    ------------------------------------------------
       NWT REQUIRED            3 OUTER ITERATIONS 
       AND A TOTAL OF          5 INNER ITERATIONS.
    ------------------------------------------------

 NO OUTPUT CONTROL FOR STRESS PERIOD   15   TIME STEP   26
 
 SOLVING FOR HEAD 
                                                   Max.-Head-Change                         Max.-Flux-Residual
  Residual-Control   Outer-Iter.   Inner-Iter.     Column Row Layer    Maximum-Head-Change  Column Row Layer    Maximum-Flux-Residual          L2-NORM 
          0                 1           2             4    7     1       0.9392904062E-02       4    7    1         0.4923856062E+00      0.1257356290E+01
          0                 2           2             4    7     1      -0.9136751930E-03       4    7    1        -0.4923867918E-01      0.1257348562E+00
          0                 3           1             4    7     1       0.6221787789E-04       4    7    1         0.3446707910E-02      0.8801374660E-02

    ------------------------------------------------
       NWT REQUIRED            3 OUTER ITERATIONS 
       AND A TOTAL OF          5 INNER ITERATIONS.
    ------------------------------------------------

 NO OUTPUT CONTROL FOR STRESS PERIOD   15   TIME STEP   27
 
 SOLVING FOR HEAD 
                                                   Max.-Head-Change                         Max.-Flux-Residual
  Residual-Control   Outer-Iter.   Inner-Iter.     Column Row Layer    Maximum-Head-Change  Column Row Layer    Maximum-Flux-Residual          L2-NORM 
          0                 1           2             4    7     1       0.9310444900E-02       4    7    1         0.4880418688E+00      0.1248460007E+01
          0                 2           2             4    7     1      -0.9056541280E-03       4    7    1        -0.4880430294E-01      0.1248452154E+00
          0                 3           1             4    7     1       0.6167167361E-04       4    7    1         0.3416301585E-02      0.8739081858E-02

    ------------------------------------------------
       NWT REQUIRED            3 OUTER ITERATIONS 
       AND A TOTAL OF          5 INNER ITERATIONS.
    ------------------------------------------------

 NO OUTPUT CONTROL FOR STRESS PERIOD   15   TIME STEP   28
 
 SOLVING FOR HEAD 
                                                   Max.-Head-Change                         Max.-Flux-Residual
  Residual-Control   Outer-Iter.   Inner-Iter.     Column Row Layer    Maximum-Head-Change  Column Row Layer    Maximum-Flux-Residual          L2-NORM 
          0                 1           2             4    7     1       0.9229203415E-02       4    7    1         0.4837591182E+00      0.1258080862E+01
          0                 2           2             4    7     1      -0.8977515095E-03       4    7    1        -0.4837602537E-01      0.1298318095E+00
          0                 3           1             4    7     1       0.6113353409E-04       4    7    1         0.3386322169E-02      0.9078468409E-02

    ------------------------------------------------
       NWT REQUIRED            3 OUTER ITERATIONS 
       AND A TOTAL OF          5 INNER ITERATIONS.
    ------------------------------------------------

 NO OUTPUT CONTROL FOR STRESS PERIOD   15   TIME STEP   29
 
 SOLVING FOR HEAD 
                                                   Max.-Head-Change                         Max.-Flux-Residual
  Residual-Control   Outer-Iter.   Inner-Iter.     Column Row Layer    Maximum-Head-Change  Column Row Layer    Maximum-Flux-Residual          L2-NORM 
          0                 1           2             4   13     1       0.1102927404E-01       4   13    1         0.6344611086E+00      0.1685914477E+01
          0                 2           2             4   13     1      -0.1061890081E-02       4   13    1        -0.6280825451E-01      0.1665512663E+00
          0                 3           1             4   13     1       0.7128495092E-04       4   13    1         0.4335160367E-02      0.1147123902E-01

    ------------------------------------------------
       NWT REQUIRED            3 OUTER ITERATIONS 
       AND A TOTAL OF          5 INNER ITERATIONS.
    ------------------------------------------------

 NO OUTPUT CONTROL FOR STRESS PERIOD   15   TIME STEP   30



 STREAM LISTING     PERIOD     15   STEP       30

 LAYER ROW COL. STREAM  RCH.  FLOW INTO     FLOW TO   FLOW OUT OF   OVRLND.     DIRECT     STREAM       STREAM     STREAM     STREAM   STREAMBED  STREAMBED
                SEG.NO.  NO.  STRM. RCH.    AQUIFER    STRM. RCH.    RUNOFF     PRECIP       ET          HEAD       DEPTH      WIDTH   CONDCTNC.   GRADIENT

   1    1    1     1     1    3.6751E+01  2.9262E-01   3.6458E+01  0.000E+00  0.000E+00  0.000E+00  1.09435E+03  1.306E+00  1.510E+01  6.795E-02  1.435E+00
   1    2    2     1     2    3.6458E+01  4.5310E-01   3.6005E+01  0.000E+00  0.000E+00  0.000E+00  1.08936E+03  1.303E+00  1.504E+01  1.053E-01  1.434E+00
   1    3    3     1     3    3.6005E+01  3.8635E-01   3.5618E+01  0.000E+00  0.000E+00  0.000E+00  1.08372E+03  1.300E+00  1.497E+01  8.985E-02  1.433E+00
   1    3    4     1     4    3.5618E+01  3.5572E-01   3.5263E+01  0.000E+00  0.000E+00  0.000E+00  1.07870E+03  1.297E+00  1.492E+01  8.278E-02  1.432E+00
   1    4    5     2     1    3.3263E+01  3.4544E-01   3.2917E+01  0.000E+00  0.000E+00  0.000E+00  1.07336E+03  1.429E+00  1.200E+01  7.800E-02  1.476E+00
   1    5    6     2     2    3.2917E+01  2.6525E-01   3.2652E+01  0.000E+00  0.000E+00  0.000E+00  1.06793E+03  1.421E+00  1.200E+01  6.000E-02  1.474E+00
   1    6    6     2     3    3.2652E+01  2.6484E-01   3.2387E+01  0.000E+00  0.000E+00  0.000E+00  1.06321E+03  1.414E+00  1.200E+01  6.000E-02  1.471E+00
   1    7    6     2     4    3.2387E+01  2.6442E-01   3.2123E+01  0.000E+00  0.000E+00  0.000E+00  1.05848E+03  1.407E+00  1.200E+01  6.000E-02  1.469E+00
   1    8    6     2     5    3.2123E+01  2.6401E-01   3.1859E+01  0.000E+00  0.000E+00  0.000E+00  1.05376E+03  1.400E+00  1.200E+01  6.000E-02  1.467E+00
   1    3    5     3     1    2.0000E+00  2.8252E-01   1.7175E+00  0.000E+00  0.000E+00  0.000E+00  1.07555E+03  1.909E+00  9.636E+00  7.227E-02  1.955E+00
   1    3    6     3     2    1.7175E+00  2.4905E-01   1.4684E+00  0.000E+00  0.000E+00  0.000E+00  1.07264E+03  1.727E+00  8.909E+00  6.682E-02  1.864E+00
   1    3    7     3     3    1.4684E+00  1.9718E-01   1.2712E+00  0.000E+00  0.000E+00  0.000E+00  1.06987E+03  1.555E+00  8.218E+00  5.547E-02  1.777E+00
   1    4    8     3     4    1.2712E+00  2.2567E-01   1.0456E+00  0.000E+00  0.000E+00  0.000E+00  1.06682E+03  1.364E+00  7.455E+00  6.709E-02  1.682E+00
   1    5    8     3     5    1.0456E+00  1.5790E-01   8.8768E-01  0.000E+00  0.000E+00  0.000E+00  1.06362E+03  1.164E+00  6.655E+00  4.991E-02  1.582E+00
   1    6    8     3     6    8.8768E-01  5.5980E-02   8.3170E-01  0.000E+00  0.000E+00  0.000E+00  1.06158E+03  1.036E+00  6.145E+00  1.844E-02  1.518E+00
   1    5   10     4     1    1.0000E+01  9.0919E-02   9.9091E+00  0.000E+00  0.000E+00  0.000E+00  1.07836E+03  6.368E-01  1.000E+01  2.500E-02  1.212E+00
   1    5    9     4     2    9.9091E+00  1.8158E-01   9.7275E+00  0.000E+00  0.000E+00  0.000E+00  1.07154E+03  6.315E-01  1.000E+01  5.000E-02  1.211E+00
   1    6    8     4     3    9.7275E+00  1.2689E-01   9.6006E+00  0.000E+00  0.000E+00  0.000E+00  1.06381E+03  6.256E-01  1.000E+01  3.500E-02  1.209E+00
   1    6    8     5     1    1.0432E+01  2.2686E-01   1.0205E+01  0.000E+00  0.000E+00  0.000E+00  1.05868E+03  6.790E-01  1.542E+01  6.166E-02  1.226E+00
   1    7    7     5     2    1.0205E+01  2.7894E-01   9.9265E+00  0.000E+00  0.000E+00  0.000E+00  1.05417E+03  6.732E-01  1.519E+01  7.594E-02  1.224E+00
   1    8    7     5     3    9.9265E+00  1.9221E-01   9.7343E+00  0.000E+00  0.000E+00  0.000E+00  1.04992E+03  6.676E-01  1.497E+01  5.241E-02  1.223E+00
   1    8    6     5     4    9.7343E+00  1.3577E-01   9.5985E+00  0.000E+00  0.000E+00  0.000E+00  1.04691E+03  6.637E-01  1.482E+01  3.706E-02  1.221E+00
   1    9    6     6     1    4.1457E+01  2.7904E-01   4.1178E+01  0.000E+00  0.000E+00  0.000E+00  1.04438E+03  1.651E+00  1.200E+01  6.000E-02  1.550E+00
   1   10    7     6     2    4.1178E+01  2.7864E-01   4.0900E+01  0.000E+00  0.000E+00  0.000E+00  1.03983E+03  1.644E+00  1.200E+01  6.000E-02  1.548E+00
   1   11    7     6     3    4.0900E+01  2.7823E-01   4.0621E+01  0.000E+00  0.000E+00  0.000E+00  1.03527E+03  1.637E+00  1.200E+01  6.000E-02  1.546E+00
   1   12    7     6     4    4.0621E+01  2.7783E-01   4.0344E+01  0.000E+00  0.000E+00  0.000E+00  1.03072E+03  1.631E+00  1.200E+01  6.000E-02  1.544E+00
   1   13    7     6     5    4.0344E+01  1.8048E-02   4.0326E+01  0.000E+00  0.000E+00  0.000E+00  1.02754E+03  1.627E+00  1.200E+01  2.400E-02  2.507E-01
   1   14    9     7     1    1.5000E+02  1.3702E+00   1.4863E+02  0.000E+00  0.000E+00  0.000E+00  1.03987E+03  2.288E+00  5.529E+01  5.593E-01  8.166E-01
   1   13    8     7     2    1.4863E+02  1.9283E+00   1.4670E+02  0.000E+00  0.000E+00  0.000E+00  1.03478E+03  2.279E+00  5.525E+01  6.148E-01  1.046E+00
   1   13    7     7     3    1.4670E+02  1.6220E+00   1.4508E+02  0.000E+00  0.000E+00  0.000E+00  1.02969E+03  2.269E+00  5.521E+01  5.584E-01  9.682E-01
   1   13    6     8     1    1.8541E+02  1.1479E+00   1.8426E+02  0.000E+00  0.000E+00  0.000E+00  1.02492E+03  3.046E+00  4.417E+01  4.501E-01  8.500E-01
   1   13    5     8     2    1.8426E+02  3.6284E-01   1.8389E+02  0.000E+00  0.000E+00  0.000E+00  1.01867E+03  3.042E+00  4.410E+01  4.494E-01  2.691E-01
   1   13    4     8     3    1.8389E+02 -1.4989E+00   1.8539E+02  0.000E+00  0.000E+00  0.000E+00  1.01242E+03  3.045E+00  4.415E+01  4.499E+00 -1.110E-01
   1   13    3     8     4    1.8539E+02 -2.9694E+00   1.8836E+02  0.000E+00  0.000E+00  0.000E+00  1.00618E+03  3.059E+00  4.435E+01  4.520E+00 -2.190E-01
   1   13    2     8     5    1.8836E+02 -1.9866E+00   1.9035E+02  0.000E+00  0.000E+00  0.000E+00  9.99949E+02  3.074E+00  4.457E+01  4.542E+00 -1.458E-01
   1   13    1     8     6    1.9035E+02 -1.6543E+00   1.9200E+02  0.000E+00  0.000E+00  0.000E+00  9.94960E+02  3.085E+00  4.473E+01  2.735E+00 -2.016E-01
   1    8    6     9     1    0.0000E+00  0.0000E+00   0.0000E+00  0.000E+00  0.000E+00  0.000E+00  1.07875E+03  0.000E+00  4.000E+00  0.000E+00  1.000E+00
   1    8    5     9     2    0.0000E+00  0.0000E+00   0.0000E+00  0.000E+00  0.000E+00  0.000E+00  1.07825E+03  0.000E+00  4.000E+00  0.000E+00  1.000E+00





UNSATURATED ZONE PACKAGE VOLUMETRIC BUDGET FOR  TIME STEP    30 STRESS PERIOD   15
  ------------------------------------------------------------------------------



     CUMULATIVE VOLUMES      L**3       RATES FOR THIS TIME STEP      L**3/T
     ------------------                 ------------------------

           IN:                                      IN:
           ---                                      ---
        INFILTRATION =   522864780.1132          INFILTRATION =           0.8475

          OUT:                                     OUT:
          ----                                     ----
              UZF ET =   434472063.9619                UZF ET =           0.7500
        UZF RECHARGE =       73224.0000          UZF RECHARGE =       0.0000E+00

            IN - OUT =    88319492.1513              IN - OUT =       9.7500E-02

          STORAGE:                                 STORAGE:
          --------                                 --------
      STORAGE CHANGE =    88319460.9530        STORAGE CHANGE =       9.7500E-02

 PERCENT DISCREPANCY IS DIFFERENCE BETWEEN IN-OUT MINUS CHANGE IN STORAGE
 DIVIDED BY THE AVERAGE OF IN AND OUT TIMES 100

 PERCENT DISCREPANCY =           0.00     PERCENT DISCREPANCY =           0.00






1
  VOLUMETRIC BUDGET FOR AGRICULTURAL FIELDS AT  END OF TIME STEP   30, STRESS PERIOD  15
  ------------------------------------------------------------------------------

     CUMULATIVE VOLUMES      L**3       RATES FOR THIS TIME STEP      L**3/T
     ------------------                 ------------------------

           IN:                                      IN:
           ---                                      ---
               AG WELLS  =   300639168.0000                 AG WELLS  =           0.0000
      DIVERSION SEGMENTS =   190946272.0000        DIVERSION SEGMENTS =           0.0000
           GW IRRIGATION =           0.0000             GW IRRIGATION =           0.0000
           SW IRRIGATION =           0.0000             SW IRRIGATION =           0.0000
        SYSTEM LOSSES GW =           0.0000          SYSTEM LOSSES GW =           0.0000
        SYSTEM LOSSES SW =           0.0000          SYSTEM LOSSES SW =           0.0000

                TOTAL IN =   491585440.0000                  TOTAL IN =           0.0000

          OUT:                                     OUT:
          ----                                     ----
               AG WELLS  =           0.0000                 AG WELLS  =           0.0000
      DIVERSION SEGMENTS =           0.0000        DIVERSION SEGMENTS =           0.0000
           GW IRRIGATION =   300639168.0000             GW IRRIGATION =           0.0000
           SW IRRIGATION =   190950192.0000             SW IRRIGATION =           0.0000
        SYSTEM LOSSES GW =           0.0000          SYSTEM LOSSES GW =           0.0000
        SYSTEM LOSSES SW =           0.0000          SYSTEM LOSSES SW =           0.0000

               TOTAL OUT =   491589376.0000                 TOTAL OUT =           0.0000

                IN - OUT =       -3936.0000                  IN - OUT =           0.0000

     PERCENT DISCREPANCY =          -0.00         PERCENT DISCREPANCY =           0.00



1
  VOLUMETRIC BUDGET FOR ENTIRE MODEL AT END OF TIME STEP   30, STRESS PERIOD  15
  ------------------------------------------------------------------------------

     CUMULATIVE VOLUMES      L**3       RATES FOR THIS TIME STEP      L**3/T
     ------------------                 ------------------------

           IN:                                      IN:
           ---                                      ---
             STORAGE     =   455082240.0000               STORAGE     =           2.8569
       CONSTANT HEAD     =           0.0000         CONSTANT HEAD     =           0.0000
     HEAD DEP BOUNDS     =    10627397.0000       HEAD DEP BOUNDS     =           0.2881
      STREAM LEAKAGE     =   430044384.0000        STREAM LEAKAGE     =          12.8562
        UZF RECHARGE     =       73223.9531          UZF RECHARGE     =           0.0000
               GW ET     =           0.0000                 GW ET     =           0.0000
     SURFACE LEAKAGE     =           0.0000       SURFACE LEAKAGE     =           0.0000
           AG WELLS      =           0.0000             AG WELLS      =           0.0000

                TOTAL IN =   895827200.0000                  TOTAL IN =          16.0013

          OUT:                                     OUT:
          ----                                     ----
             STORAGE     =   204550320.0000               STORAGE     =           7.6059
       CONSTANT HEAD     =           0.0000         CONSTANT HEAD     =           0.0000
     HEAD DEP BOUNDS     =    10629094.0000       HEAD DEP BOUNDS     =           0.2875
      STREAM LEAKAGE     =   380014432.0000        STREAM LEAKAGE     =           8.1092
        UZF RECHARGE     =           0.0000          UZF RECHARGE     =           0.0000
               GW ET     =           0.0000                 GW ET     =           0.0000
     SURFACE LEAKAGE     =           0.0000       SURFACE LEAKAGE     =           0.0000
           AG WELLS      =   300639168.0000             AG WELLS      =           0.0000

               TOTAL OUT =   895833024.0000                 TOTAL OUT =          16.0026

                IN - OUT =       -5824.0000                  IN - OUT =      -1.3485E-03

     PERCENT DISCREPANCY =          -0.00         PERCENT DISCREPANCY =          -0.01






         TIME SUMMARY AT END OF TIME STEP   30 IN STRESS PERIOD   15
                    SECONDS     MINUTES      HOURS       DAYS        YEARS
                    -----------------------------------------------------------
   TIME STEP LENGTH  87667.      1461.1      24.352      1.0147     2.77799E-03
 STRESS PERIOD TIME 2.63000E+06  43833.      730.56      30.440     8.33397E-02
         TOTAL TIME 3.69063E+07 6.15106E+05  10252.      427.16      1.1695    
1
1
                            STRESS PERIOD NO.   16, LENGTH =   2630000.    
                            -----------------------------------------------

                              NUMBER OF TIME STEPS =    30

                               MULTIPLIER FOR DELT =     1.000

                            INITIAL TIME STEP SIZE =   87666.66    

 REUSING NON-PARAMETER GHB CELLS FROM LAST STRESS PERIOD

      2 GHB CELLS

 REUSING STREAM SEGMENT DATA FROM LAST STRESS PERIOD



            AREAL INFILTRATION RATE
 READING ON UNIT   19 WITH FORMAT: (FREE)              

            1           2           3           4           5           6           7           8           9          10
 ........................................................................................................................
   1   1.0000E-10  2.0000E-10   0.000       0.000       0.000       0.000       0.000       0.000       0.000       0.000    
   2   2.0000E-10  1.0000E-10  2.0000E-10   0.000       0.000      8.0000E-10  8.0000E-10  5.0000E-10   0.000       0.000    
   3    0.000      5.0000E-10  1.0000E-10  1.0000E-10  8.0000E-10  8.0000E-10  5.0000E-10  5.0000E-10   0.000       0.000    
   4   8.0000E-10  5.0000E-10  1.0000E-10  1.0000E-10  1.0000E-10  1.0000E-10  1.0000E-10  1.0000E-10  2.0000E-10   0.000    
   5   8.0000E-10  5.0000E-10  1.0000E-10  1.0000E-10  1.0000E-10  1.0000E-10  1.0000E-10  1.0000E-10  1.0000E-10  1.0000E-10
   6   8.0000E-10  5.0000E-10  5.0000E-10  2.0000E-10  2.0000E-10  1.0000E-10  1.0000E-10  1.0000E-10  1.0000E-10  5.0000E-10
   7   8.0000E-10  5.0000E-10  5.0000E-10  2.0000E-10  2.0000E-10  1.0000E-10  1.0000E-10  2.0000E-10  2.0000E-10   0.000    
   8    0.000      5.0000E-10  5.0000E-10  2.0000E-10  2.0000E-10  1.0000E-10  1.0000E-10  2.0000E-10  5.0000E-10   0.000    
   9    0.000      5.0000E-10  5.0000E-10  2.0000E-10  2.0000E-10  1.0000E-10  1.0000E-10  2.0000E-10  5.0000E-10   0.000    
  10    0.000      5.0000E-10  5.0000E-10  2.0000E-10  2.0000E-10  1.0000E-10  1.0000E-10  2.0000E-10  5.0000E-10  8.0000E-10
  11    0.000      1.0000E-10  1.0000E-10  1.0000E-10  1.0000E-10  1.0000E-10  1.0000E-10  2.0000E-10  5.0000E-10   0.000    
  12   1.0000E-10  1.0000E-10  1.0000E-10  1.0000E-10  1.0000E-10  1.0000E-10  1.0000E-10  1.0000E-10  2.0000E-10   0.000    
  13   1.0000E-10  1.0000E-10  2.0000E-10  2.0000E-10  2.0000E-10  2.0000E-10  2.0000E-10  1.0000E-10  1.0000E-10   0.000    
  14    0.000      2.0000E-10  5.0000E-10  5.0000E-10  5.0000E-10  5.0000E-10  5.0000E-10  2.0000E-10  1.0000E-10   0.000    
  15    0.000       0.000      8.0000E-10  8.0000E-10  8.0000E-10  8.0000E-10   0.000       0.000       0.000       0.000    

                  ET RATE =  5.000000E-10

 USING ET EXTINCTION DEPTH FROM PREVIOUS STRESS PERIOD. CURRENT PERIOD IS:      16

 USING EXTINCTION WATER CONTENT FROM PREVIOUS STRESS PERIOD. CURRENT PERIOD IS:      16

 USING AIR ENTRY PRESSURE FROM PREVIOUS STRESS PERIOD. CURRENT PERIOD IS:      16

 USING ROOT PRESSURE HEAD FROM PREVIOUS STRESS PERIOD. CURRENT PERIOD IS:      16

 USING ROOT ACTIVITY FROM PREVIOUS STRESS PERIOD. CURRENT PERIOD IS:      16

 PROCESSING AG STRESS PERIOD DATA

 READING AG STRESS PERIOD DATA

 READING IRRIGATION SEGMENT

 READING IRRIGATION WELL

 READING SUPPLEMENTAL WELL

 END PROCESSING AG STRESS PERIOD DATA OPTIONS
 
 SOLVING FOR HEAD 
                                                   Max.-Head-Change                         Max.-Flux-Residual
  Residual-Control   Outer-Iter.   Inner-Iter.     Column Row Layer    Maximum-Head-Change  Column Row Layer    Maximum-Flux-Residual          L2-NORM 
          0                 1           2             4   13     1       0.9969900263E-02       4   13    1         0.5732673032E+00      0.1624287718E+01
          0                 2           2             4   13     1      -0.9598668174E-03       4   13    1        -0.5674854672E-01      0.1606373291E+00
          0                 3           1             4   13     1       0.6442780912E-04       4   13    1         0.3916383099E-02      0.1107966347E-01

    ------------------------------------------------
       NWT REQUIRED            3 OUTER ITERATIONS 
       AND A TOTAL OF          5 INNER ITERATIONS.
    ------------------------------------------------

 NO OUTPUT CONTROL FOR STRESS PERIOD   16   TIME STEP    1
 
 SOLVING FOR HEAD 
                                                   Max.-Head-Change                         Max.-Flux-Residual
  Residual-Control   Outer-Iter.   Inner-Iter.     Column Row Layer    Maximum-Head-Change  Column Row Layer    Maximum-Flux-Residual          L2-NORM 
          0                 1           2             4   13     1       0.9016453136E-02       4   13    1         0.5182092972E+00      0.1569671886E+01
          0                 2           2             4    7     1      -0.8748042601E-03       4   13    1        -0.5129696769E-01      0.1553991048E+00
          0                 3           1             4    7     1       0.5957091136E-04       4   13    1         0.3540032832E-02      0.1073388148E-01

    ------------------------------------------------
       NWT REQUIRED            3 OUTER ITERATIONS 
       AND A TOTAL OF          5 INNER ITERATIONS.
    ------------------------------------------------

 NO OUTPUT CONTROL FOR STRESS PERIOD   16   TIME STEP    2
 
 SOLVING FOR HEAD 
                                                   Max.-Head-Change                         Max.-Flux-Residual
  Residual-Control   Outer-Iter.   Inner-Iter.     Column Row Layer    Maximum-Head-Change  Column Row Layer    Maximum-Flux-Residual          L2-NORM 
          0                 1           2             4    7     1       0.8917176049E-02       4   13    1         0.4686488939E+00      0.1521228856E+01
          0                 2           2             4    7     1      -0.8673996098E-03       4    7    1        -0.4672797809E-01      0.1507525098E+00
          0                 3           1             4    7     1       0.5906668262E-04       4    7    1         0.3270958884E-02      0.1042726452E-01

    ------------------------------------------------
       NWT REQUIRED            3 OUTER ITERATIONS 
       AND A TOTAL OF          5 INNER ITERATIONS.
    ------------------------------------------------

 NO OUTPUT CONTROL FOR STRESS PERIOD   16   TIME STEP    3
 
 SOLVING FOR HEAD 
                                                   Max.-Head-Change                         Max.-Flux-Residual
  Residual-Control   Outer-Iter.   Inner-Iter.     Column Row Layer    Maximum-Head-Change  Column Row Layer    Maximum-Flux-Residual          L2-NORM 
          0                 1           2             4    7     1       0.8842136972E-02       4    7    1         0.4633172135E+00      0.1478205675E+01
          0                 2           2             4    7     1      -0.8601003201E-03       4    7    1        -0.4633182284E-01      0.1466244238E+00
          0                 3           1             4    7     1       0.5856962851E-04       4    7    1         0.3243228031E-02      0.1015407291E-01

    ------------------------------------------------
       NWT REQUIRED            3 OUTER ITERATIONS 
       AND A TOTAL OF          5 INNER ITERATIONS.
    ------------------------------------------------

 NO OUTPUT CONTROL FOR STRESS PERIOD   16   TIME STEP    4
 
 SOLVING FOR HEAD 
                                                   Max.-Head-Change                         Max.-Flux-Residual
  Residual-Control   Outer-Iter.   Inner-Iter.     Column Row Layer    Maximum-Head-Change  Column Row Layer    Maximum-Flux-Residual          L2-NORM 
          0                 1           2             4    7     1       0.8768418138E-02       4    7    1         0.4594265306E+00      0.1439927794E+01
          0                 2           2             4    7     1      -0.8529294559E-03       4    7    1        -0.4594275238E-01      0.1429507147E+00
          0                 3           1             4    7     1       0.5808131972E-04       4    7    1         0.3215993110E-02      0.9910552821E-02

    ------------------------------------------------
       NWT REQUIRED            3 OUTER ITERATIONS 
       AND A TOTAL OF          5 INNER ITERATIONS.
    ------------------------------------------------

 NO OUTPUT CONTROL FOR STRESS PERIOD   16   TIME STEP    5
 
 SOLVING FOR HEAD 
                                                   Max.-Head-Change                         Max.-Flux-Residual
  Residual-Control   Outer-Iter.   Inner-Iter.     Column Row Layer    Maximum-Head-Change  Column Row Layer    Maximum-Flux-Residual          L2-NORM 
          0                 1           2             4    7     1       0.8695845141E-02       4    7    1         0.4555969563E+00      0.1405798320E+01
          0                 2           2             4    7     1      -0.8458700507E-03       4    7    1        -0.4555979282E-01      0.1396726528E+00
          0                 3           1             4    7     1       0.5760060152E-04       4    7    1         0.3189185966E-02      0.9694044191E-02

    ------------------------------------------------
       NWT REQUIRED            3 OUTER ITERATIONS 
       AND A TOTAL OF          5 INNER ITERATIONS.
    ------------------------------------------------

 NO OUTPUT CONTROL FOR STRESS PERIOD   16   TIME STEP    6
 
 SOLVING FOR HEAD 
                                                   Max.-Head-Change                         Max.-Flux-Residual
  Residual-Control   Outer-Iter.   Inner-Iter.     Column Row Layer    Maximum-Head-Change  Column Row Layer    Maximum-Flux-Residual          L2-NORM 
          0                 1           2             4    7     1       0.8624253032E-02       4    7    1         0.4518194476E+00      0.1375285470E+01
          0                 2           2             4    7     1      -0.8389060602E-03       4    7    1        -0.4518203989E-01      0.1367395364E+00
          0                 3           1             4    7     1       0.5712637928E-04       4    7    1         0.3162743252E-02      0.9499044422E-02

    ------------------------------------------------
       NWT REQUIRED            3 OUTER ITERATIONS 
       AND A TOTAL OF          5 INNER ITERATIONS.
    ------------------------------------------------

 NO OUTPUT CONTROL FOR STRESS PERIOD   16   TIME STEP    7
 
 SOLVING FOR HEAD 
                                                   Max.-Head-Change                         Max.-Flux-Residual
  Residual-Control   Outer-Iter.   Inner-Iter.     Column Row Layer    Maximum-Head-Change  Column Row Layer    Maximum-Flux-Residual          L2-NORM 
          0                 1           2             4    7     1       0.8553885556E-02       4    7    1         0.4481074850E+00      0.1347932143E+01
          0                 2           2             4    7     1      -0.8320611938E-03       4    7    1        -0.4481084163E-01      0.1341084456E+00
          0                 3           1             4    7     1       0.5666026973E-04       4    7    1         0.3136759381E-02      0.9324758000E-02

    ------------------------------------------------
       NWT REQUIRED            3 OUTER ITERATIONS 
       AND A TOTAL OF          5 INNER ITERATIONS.
    ------------------------------------------------

 NO OUTPUT CONTROL FOR STRESS PERIOD   16   TIME STEP    8
 
 SOLVING FOR HEAD 
                                                   Max.-Head-Change                         Max.-Flux-Residual
  Residual-Control   Outer-Iter.   Inner-Iter.     Column Row Layer    Maximum-Head-Change  Column Row Layer    Maximum-Flux-Residual          L2-NORM 
          0                 1           2             4    7     1       0.8484432228E-02       4    7    1         0.4444443289E+00      0.1323302168E+01
          0                 2           2             4    7     1      -0.8253052501E-03       4    7    1        -0.4444452408E-01      0.1317355473E+00
          0                 3           1             4    7     1       0.5620021535E-04       4    7    1         0.3111117155E-02      0.9166851201E-02

    ------------------------------------------------
       NWT REQUIRED            3 OUTER ITERATIONS 
       AND A TOTAL OF          5 INNER ITERATIONS.
    ------------------------------------------------

 NO OUTPUT CONTROL FOR STRESS PERIOD   16   TIME STEP    9
 
 SOLVING FOR HEAD 
                                                   Max.-Head-Change                         Max.-Flux-Residual
  Residual-Control   Outer-Iter.   Inner-Iter.     Column Row Layer    Maximum-Head-Change  Column Row Layer    Maximum-Flux-Residual          L2-NORM 
          0                 1           2             4    7     1       0.8416144556E-02       4    7    1         0.4408432590E+00      0.1301070474E+01
          0                 2           2             4    7     1      -0.8186626946E-03       4    7    1        -0.4408441522E-01      0.1295916516E+00
          0                 3           1             4    7     1       0.5574788244E-04       4    7    1         0.3085909560E-02      0.9024399121E-02

    ------------------------------------------------
       NWT REQUIRED            3 OUTER ITERATIONS 
       AND A TOTAL OF          5 INNER ITERATIONS.
    ------------------------------------------------

 NO OUTPUT CONTROL FOR STRESS PERIOD   16   TIME STEP   10
 
 SOLVING FOR HEAD 
                                                   Max.-Head-Change                         Max.-Flux-Residual
  Residual-Control   Outer-Iter.   Inner-Iter.     Column Row Layer    Maximum-Head-Change  Column Row Layer    Maximum-Flux-Residual          L2-NORM 
          0                 1           2             4    7     1       0.8348713600E-02       4    7    1         0.4372879372E+00      0.1280893322E+01
          0                 2           2             4    7     1      -0.8121034739E-03       4    7    1        -0.4372888121E-01      0.1276420947E+00
          0                 3           1             4    7     1       0.5530122424E-04       4    7    1         0.3061022178E-02      0.8893986315E-02

    ------------------------------------------------
       NWT REQUIRED            3 OUTER ITERATIONS 
       AND A TOTAL OF          5 INNER ITERATIONS.
    ------------------------------------------------

 NO OUTPUT CONTROL FOR STRESS PERIOD   16   TIME STEP   11
 
 SOLVING FOR HEAD 
                                                   Max.-Head-Change                         Max.-Flux-Residual
  Residual-Control   Outer-Iter.   Inner-Iter.     Column Row Layer    Maximum-Head-Change  Column Row Layer    Maximum-Flux-Residual          L2-NORM 
          0                 1           2             4    7     1       0.8282391942E-02       4    7    1         0.4337917244E+00      0.1262522940E+01
          0                 2           2             4    7     1      -0.8056521586E-03       4    7    1        -0.4337925814E-01      0.1258647884E+00
          0                 3           1             4    7     1       0.5486191391E-04       4    7    1         0.3036548572E-02      0.8774989107E-02

    ------------------------------------------------
       NWT REQUIRED            3 OUTER ITERATIONS 
       AND A TOTAL OF          5 INNER ITERATIONS.
    ------------------------------------------------

 NO OUTPUT CONTROL FOR STRESS PERIOD   16   TIME STEP   12
 
 SOLVING FOR HEAD 
                                                   Max.-Head-Change                         Max.-Flux-Residual
  Residual-Control   Outer-Iter.   Inner-Iter.     Column Row Layer    Maximum-Head-Change  Column Row Layer    Maximum-Flux-Residual          L2-NORM 
          0                 1           2             4    7     1       0.8216877852E-02       4    7    1         0.4303383371E+00      0.1245699336E+01
          0                 2           2             4    7     1      -0.7992793983E-03       4    7    1        -0.4303391768E-01      0.1242289353E+00
          0                 3           1             4    7     1       0.5442795264E-04       4    7    1         0.3012374732E-02      0.8665906645E-02

    ------------------------------------------------
       NWT REQUIRED            3 OUTER ITERATIONS 
       AND A TOTAL OF          5 INNER ITERATIONS.
    ------------------------------------------------

 NO OUTPUT CONTROL FOR STRESS PERIOD   16   TIME STEP   13
 
 SOLVING FOR HEAD 
                                                   Max.-Head-Change                         Max.-Flux-Residual
  Residual-Control   Outer-Iter.   Inner-Iter.     Column Row Layer    Maximum-Head-Change  Column Row Layer    Maximum-Flux-Residual          L2-NORM 
          0                 1           2             4    7     1       0.8152288058E-02       4    7    1         0.4269341659E+00      0.1230255228E+01
          0                 2           2             4    7     1      -0.7929965478E-03       4    7    1        -0.4269349888E-01      0.1227340384E+00
          0                 3           1             4    7     1       0.5400011387E-04       4    7    1         0.2988545422E-02      0.8564351949E-02

    ------------------------------------------------
       NWT REQUIRED            3 OUTER ITERATIONS 
       AND A TOTAL OF          5 INNER ITERATIONS.
    ------------------------------------------------

 NO OUTPUT CONTROL FOR STRESS PERIOD   16   TIME STEP   14
 
 SOLVING FOR HEAD 
                                                   Max.-Head-Change                         Max.-Flux-Residual
  Residual-Control   Outer-Iter.   Inner-Iter.     Column Row Layer    Maximum-Head-Change  Column Row Layer    Maximum-Flux-Residual          L2-NORM 
          0                 1           2             4    7     1       0.8088732594E-02       4    7    1         0.4235852633E+00      0.1215984016E+01
          0                 2           2             4    7     1      -0.7868143102E-03       4    7    1        -0.4235860700E-01      0.1213453019E+00
          0                 3           1             4    7     1       0.5357912691E-04       4    7    1         0.2965103006E-02      0.8470934502E-02

    ------------------------------------------------
       NWT REQUIRED            3 OUTER ITERATIONS 
       AND A TOTAL OF          5 INNER ITERATIONS.
    ------------------------------------------------

 NO OUTPUT CONTROL FOR STRESS PERIOD   16   TIME STEP   15
 
 SOLVING FOR HEAD 
                                                   Max.-Head-Change                         Max.-Flux-Residual
  Residual-Control   Outer-Iter.   Inner-Iter.     Column Row Layer    Maximum-Head-Change  Column Row Layer    Maximum-Flux-Residual          L2-NORM 
          0                 1           2             4    7     1       0.8025915395E-02       4    7    1         0.4202752984E+00      0.1202746275E+01
          0                 2           2             4    7     1      -0.7807038861E-03       4    7    1        -0.4202760892E-01      0.1200560871E+00
          0                 3           1             4    7     1       0.5316302998E-04       4    7    1         0.2941933139E-02      0.8383699973E-02

    ------------------------------------------------
       NWT REQUIRED            3 OUTER ITERATIONS 
       AND A TOTAL OF          5 INNER ITERATIONS.
    ------------------------------------------------

 NO OUTPUT CONTROL FOR STRESS PERIOD   16   TIME STEP   16
 
 SOLVING FOR HEAD 
                                                   Max.-Head-Change                         Max.-Flux-Residual
  Residual-Control   Outer-Iter.   Inner-Iter.     Column Row Layer    Maximum-Head-Change  Column Row Layer    Maximum-Flux-Residual          L2-NORM 
          0                 1           2             4    7     1       0.7964085446E-02       4    7    1         0.4170183024E+00      0.1190399663E+01
          0                 2           2             4    7     1      -0.7746894951E-03       4    7    1        -0.4170190776E-01      0.1188505677E+00
          0                 3           1             4    7     1       0.5275347256E-04       4    7    1         0.2919134067E-02      0.8302846055E-02

    ------------------------------------------------
       NWT REQUIRED            3 OUTER ITERATIONS 
       AND A TOTAL OF          5 INNER ITERATIONS.
    ------------------------------------------------

 NO OUTPUT CONTROL FOR STRESS PERIOD   16   TIME STEP   17
 
 SOLVING FOR HEAD 
                                                   Max.-Head-Change                         Max.-Flux-Residual
  Residual-Control   Outer-Iter.   Inner-Iter.     Column Row Layer    Maximum-Head-Change  Column Row Layer    Maximum-Flux-Residual          L2-NORM 
          0                 1           2             4    7     1       0.7903081378E-02       4    7    1         0.4138051483E+00      0.1178843374E+01
          0                 2           2             4    7     1      -0.7687554409E-03       4    7    1        -0.4138059086E-01      0.1177197221E+00
          0                 3           1             4    7     1       0.5234938596E-04       4    7    1         0.2896641899E-02      0.8225394063E-02

    ------------------------------------------------
       NWT REQUIRED            3 OUTER ITERATIONS 
       AND A TOTAL OF          5 INNER ITERATIONS.
    ------------------------------------------------

 NO OUTPUT CONTROL FOR STRESS PERIOD   16   TIME STEP   18
 
 SOLVING FOR HEAD 
                                                   Max.-Head-Change                         Max.-Flux-Residual
  Residual-Control   Outer-Iter.   Inner-Iter.     Column Row Layer    Maximum-Head-Change  Column Row Layer    Maximum-Flux-Residual          L2-NORM 
          0                 1           2             4    7     1       0.7842750838E-02       4    7    1         0.4106274689E+00      0.1167981805E+01
          0                 2           2             4    7     1      -0.7628869025E-03       4    7    1        -0.4106282146E-01      0.1166554408E+00
          0                 3           1             4    7     1       0.5194976042E-04       4    7    1         0.2874398033E-02      0.8153321571E-02

    ------------------------------------------------
       NWT REQUIRED            3 OUTER ITERATIONS 
       AND A TOTAL OF          5 INNER ITERATIONS.
    ------------------------------------------------

 NO OUTPUT CONTROL FOR STRESS PERIOD   16   TIME STEP   19
 
 SOLVING FOR HEAD 
                                                   Max.-Head-Change                         Max.-Flux-Residual
  Residual-Control   Outer-Iter.   Inner-Iter.     Column Row Layer    Maximum-Head-Change  Column Row Layer    Maximum-Flux-Residual          L2-NORM 
          0                 1           2             4    7     1       0.7783351894E-02       4    7    1         0.4074994026E+00      0.1157727093E+01
          0                 2           2             4    7     1      -0.7571089838E-03       4    7    1        -0.4075001339E-01      0.1156482690E+00
          0                 3           1             4    7     1       0.5155630566E-04       4    7    1         0.2852501474E-02      0.8074676040E-02

    ------------------------------------------------
       NWT REQUIRED            3 OUTER ITERATIONS 
       AND A TOTAL OF          5 INNER ITERATIONS.
    ------------------------------------------------

 NO OUTPUT CONTROL FOR STRESS PERIOD   16   TIME STEP   20
 
 SOLVING FOR HEAD 
                                                   Max.-Head-Change                         Max.-Flux-Residual
  Residual-Control   Outer-Iter.   Inner-Iter.     Column Row Layer    Maximum-Head-Change  Column Row Layer    Maximum-Flux-Residual          L2-NORM 
          0                 1           2             4    7     1       0.7724720555E-02       4    7    1         0.4044122924E+00      0.1148003765E+01
          0                 2           2             4    7     1      -0.7514057329E-03       4    7    1        -0.4044130098E-01      0.1146917174E+00
          0                 3           1             4    7     1       0.5116793595E-04       4    7    1         0.2830891620E-02      0.8017959359E-02

    ------------------------------------------------
       NWT REQUIRED            3 OUTER ITERATIONS 
       AND A TOTAL OF          5 INNER ITERATIONS.
    ------------------------------------------------

 NO OUTPUT CONTROL FOR STRESS PERIOD   16   TIME STEP   21
 
 SOLVING FOR HEAD 
                                                   Max.-Head-Change                         Max.-Flux-Residual
  Residual-Control   Outer-Iter.   Inner-Iter.     Column Row Layer    Maximum-Head-Change  Column Row Layer    Maximum-Flux-Residual          L2-NORM 
          0                 1           2             4    7     1       0.7666838143E-02       4    7    1         0.4013649812E+00      0.1138752316E+01
          0                 2           2             4    7     1      -0.7457753325E-03       4    7    1        -0.4013656853E-01      0.1137811571E+00
          0                 3           1             4    7     1       0.5078452655E-04       4    7    1         0.2809560345E-02      0.7955943878E-02

    ------------------------------------------------
       NWT REQUIRED            3 OUTER ITERATIONS 
       AND A TOTAL OF          5 INNER ITERATIONS.
    ------------------------------------------------

 NO OUTPUT CONTROL FOR STRESS PERIOD   16   TIME STEP   22
 
 SOLVING FOR HEAD 
                                                   Max.-Head-Change                         Max.-Flux-Residual
  Residual-Control   Outer-Iter.   Inner-Iter.     Column Row Layer    Maximum-Head-Change  Column Row Layer    Maximum-Flux-Residual          L2-NORM 
          0                 1           2             4    7     1       0.7609688756E-02       4    7    1         0.3983565007E+00      0.1129922599E+01
          0                 2           2             4    7     1      -0.7402162362E-03       4    7    1        -0.3983571915E-01      0.1129104813E+00
          0                 3           1             4    7     1       0.5040597286E-04       4    7    1         0.2788500896E-02      0.7896353993E-02

    ------------------------------------------------
       NWT REQUIRED            3 OUTER ITERATIONS 
       AND A TOTAL OF          5 INNER ITERATIONS.
    ------------------------------------------------

 NO OUTPUT CONTROL FOR STRESS PERIOD   16   TIME STEP   23
 
 SOLVING FOR HEAD 
                                                   Max.-Head-Change                         Max.-Flux-Residual
  Residual-Control   Outer-Iter.   Inner-Iter.     Column Row Layer    Maximum-Head-Change  Column Row Layer    Maximum-Flux-Residual          L2-NORM 
          0                 1           2             4    7     1       0.7553391927E-02       4    7    1         0.3953933729E+00      0.1121472157E+01
          0                 2           2             4    7     1      -0.7347467619E-03       4    7    1        -0.3953940508E-01      0.1120823956E+00
          0                 3           1             4    7     1       0.5003352226E-04       4    7    1         0.2767758909E-02      0.7839233958E-02

    ------------------------------------------------
       NWT REQUIRED            3 OUTER ITERATIONS 
       AND A TOTAL OF          5 INNER ITERATIONS.
    ------------------------------------------------

 NO OUTPUT CONTROL FOR STRESS PERIOD   16   TIME STEP   24
 
 SOLVING FOR HEAD 
                                                   Max.-Head-Change                         Max.-Flux-Residual
  Residual-Control   Outer-Iter.   Inner-Iter.     Column Row Layer    Maximum-Head-Change  Column Row Layer    Maximum-Flux-Residual          L2-NORM 
          0                 1           2             4    7     1       0.7497625915E-02       4    7    1         0.3924594003E+00      0.1113339178E+01
          0                 2           2             4    7     1      -0.7293155402E-03       4    7    1        -0.3924600658E-01      0.1112719497E+00
          0                 3           1             4    7     1       0.4966367602E-04       4    7    1         0.2747221017E-02      0.7783466460E-02

    ------------------------------------------------
       NWT REQUIRED            3 OUTER ITERATIONS 
       AND A TOTAL OF          5 INNER ITERATIONS.
    ------------------------------------------------

 NO OUTPUT CONTROL FOR STRESS PERIOD   16   TIME STEP   25
 
 SOLVING FOR HEAD 
                                                   Max.-Head-Change                         Max.-Flux-Residual
  Residual-Control   Outer-Iter.   Inner-Iter.     Column Row Layer    Maximum-Head-Change  Column Row Layer    Maximum-Flux-Residual          L2-NORM 
          0                 1           2             4    7     1       0.7442677287E-02       4    7    1         0.3895683538E+00      0.1105509806E+01
          0                 2           2             4    7     1      -0.7239705191E-03       4    7    1        -0.3895690071E-01      0.1104971329E+00
          0                 3           1             4    7     1       0.4929970045E-04       4    7    1         0.2726983617E-02      0.7730072041E-02

    ------------------------------------------------
       NWT REQUIRED            3 OUTER ITERATIONS 
       AND A TOTAL OF          5 INNER ITERATIONS.
    ------------------------------------------------

 NO OUTPUT CONTROL FOR STRESS PERIOD   16   TIME STEP   26
 
 SOLVING FOR HEAD 
                                                   Max.-Head-Change                         Max.-Flux-Residual
  Residual-Control   Outer-Iter.   Inner-Iter.     Column Row Layer    Maximum-Head-Change  Column Row Layer    Maximum-Flux-Residual          L2-NORM 
          0                 1           2             4    7     1       0.7388383183E-02       4    7    1         0.3867119854E+00      0.1097945183E+01
          0                 2           2             4    7     1      -0.7186891658E-03       4    7    1        -0.3867126270E-01      0.1097473489E+00
          0                 3           1             4    7     1       0.4894005980E-04       4    7    1         0.2706988950E-02      0.7677865807E-02

    ------------------------------------------------
       NWT REQUIRED            3 OUTER ITERATIONS 
       AND A TOTAL OF          5 INNER ITERATIONS.
    ------------------------------------------------

 NO OUTPUT CONTROL FOR STRESS PERIOD   16   TIME STEP   27
 
 SOLVING FOR HEAD 
                                                   Max.-Head-Change                         Max.-Flux-Residual
  Residual-Control   Outer-Iter.   Inner-Iter.     Column Row Layer    Maximum-Head-Change  Column Row Layer    Maximum-Flux-Residual          L2-NORM 
          0                 1           2             4    7     1       0.7334727902E-02       4    7    1         0.3838895531E+00      0.1090625152E+01
          0                 2           2             4    7     1      -0.7134699529E-03       4    7    1        -0.3838901832E-01      0.1090212805E+00
          0                 3           1             4    7     1       0.4858465074E-04       4    7    1         0.2687231833E-02      0.7627636451E-02

    ------------------------------------------------
       NWT REQUIRED            3 OUTER ITERATIONS 
       AND A TOTAL OF          5 INNER ITERATIONS.
    ------------------------------------------------

 NO OUTPUT CONTROL FOR STRESS PERIOD   16   TIME STEP   28
 
 SOLVING FOR HEAD 
                                                   Max.-Head-Change                         Max.-Flux-Residual
  Residual-Control   Outer-Iter.   Inner-Iter.     Column Row Layer    Maximum-Head-Change  Column Row Layer    Maximum-Flux-Residual          L2-NORM 
          0                 1           2             4    7     1       0.7281704422E-02       4    7    1         0.3811002426E+00      0.1083533763E+01
          0                 2           2             4    7     1      -0.7083121972E-03       4    7    1        -0.3811008613E-01      0.1083174420E+00
          0                 3           1             4    7     1       0.4823342689E-04       4    7    1         0.2667706590E-02      0.7578937153E-02

    ------------------------------------------------
       NWT REQUIRED            3 OUTER ITERATIONS 
       AND A TOTAL OF          5 INNER ITERATIONS.
    ------------------------------------------------

 NO OUTPUT CONTROL FOR STRESS PERIOD   16   TIME STEP   29
 
 SOLVING FOR HEAD 
                                                   Max.-Head-Change                         Max.-Flux-Residual
  Residual-Control   Outer-Iter.   Inner-Iter.     Column Row Layer    Maximum-Head-Change  Column Row Layer    Maximum-Flux-Residual          L2-NORM 
          0                 1           2             4    7     1       0.7229407472E-02       4    7    1         0.3783510373E+00      0.1060330380E+01
          0                 2           2             4    7     1      -0.7032251138E-03       4    7    1        -0.3783516451E-01      0.1060308597E+00
          0                 3           1             4    7     1       0.4788701568E-04       4    7    1         0.2648462079E-02      0.7421965802E-02

    ------------------------------------------------
       NWT REQUIRED            3 OUTER ITERATIONS 
       AND A TOTAL OF          5 INNER ITERATIONS.
    ------------------------------------------------

 NO OUTPUT CONTROL FOR STRESS PERIOD   16   TIME STEP   30



 STREAM LISTING     PERIOD     16   STEP       30

 LAYER ROW COL. STREAM  RCH.  FLOW INTO     FLOW TO   FLOW OUT OF   OVRLND.     DIRECT     STREAM       STREAM     STREAM     STREAM   STREAMBED  STREAMBED
                SEG.NO.  NO.  STRM. RCH.    AQUIFER    STRM. RCH.    RUNOFF     PRECIP       ET          HEAD       DEPTH      WIDTH   CONDCTNC.   GRADIENT

   1    1    1     1     1    3.3171E+01  2.7949E-01   3.2891E+01  0.000E+00  0.000E+00  0.000E+00  1.09432E+03  1.277E+00  1.452E+01  6.535E-02  1.426E+00
   1    2    2     1     2    3.2891E+01  4.3266E-01   3.2458E+01  0.000E+00  0.000E+00  0.000E+00  1.08933E+03  1.274E+00  1.446E+01  1.012E-01  1.425E+00
   1    3    3     1     3    3.2458E+01  3.6882E-01   3.2090E+01  0.000E+00  0.000E+00  0.000E+00  1.08369E+03  1.270E+00  1.439E+01  8.637E-02  1.423E+00
   1    3    4     1     4    3.2090E+01  3.3948E-01   3.1750E+01  0.000E+00  0.000E+00  0.000E+00  1.07868E+03  1.267E+00  1.433E+01  7.955E-02  1.422E+00
   1    4    5     2     1    2.9750E+01  3.3819E-01   2.9412E+01  0.000E+00  0.000E+00  0.000E+00  1.07327E+03  1.336E+00  1.200E+01  7.800E-02  1.445E+00
   1    5    6     2     2    2.9412E+01  2.5966E-01   2.9152E+01  0.000E+00  0.000E+00  0.000E+00  1.06784E+03  1.328E+00  1.200E+01  6.000E-02  1.443E+00
   1    6    6     2     3    2.9152E+01  2.5924E-01   2.8893E+01  0.000E+00  0.000E+00  0.000E+00  1.06311E+03  1.321E+00  1.200E+01  6.000E-02  1.440E+00
   1    7    6     2     4    2.8893E+01  2.5881E-01   2.8634E+01  0.000E+00  0.000E+00  0.000E+00  1.05839E+03  1.314E+00  1.200E+01  6.000E-02  1.438E+00
   1    8    6     2     5    2.8634E+01  2.5839E-01   2.8376E+01  0.000E+00  0.000E+00  0.000E+00  1.05367E+03  1.306E+00  1.200E+01  6.000E-02  1.435E+00
   1    3    5     3     1    2.0000E+00  2.8252E-01   1.7175E+00  0.000E+00  0.000E+00  0.000E+00  1.07555E+03  1.909E+00  9.636E+00  7.227E-02  1.955E+00
   1    3    6     3     2    1.7175E+00  2.4905E-01   1.4684E+00  0.000E+00  0.000E+00  0.000E+00  1.07264E+03  1.727E+00  8.909E+00  6.682E-02  1.864E+00
   1    3    7     3     3    1.4684E+00  1.9718E-01   1.2712E+00  0.000E+00  0.000E+00  0.000E+00  1.06987E+03  1.555E+00  8.218E+00  5.547E-02  1.777E+00
   1    4    8     3     4    1.2712E+00  2.2567E-01   1.0456E+00  0.000E+00  0.000E+00  0.000E+00  1.06682E+03  1.364E+00  7.455E+00  6.709E-02  1.682E+00
   1    5    8     3     5    1.0456E+00  1.5790E-01   8.8768E-01  0.000E+00  0.000E+00  0.000E+00  1.06362E+03  1.164E+00  6.655E+00  4.991E-02  1.582E+00
   1    6    8     3     6    8.8768E-01  5.5980E-02   8.3170E-01  0.000E+00  0.000E+00  0.000E+00  1.06158E+03  1.036E+00  6.145E+00  1.844E-02  1.518E+00
   1    5   10     4     1    1.0000E+01  9.0919E-02   9.9091E+00  0.000E+00  0.000E+00  0.000E+00  1.07836E+03  6.368E-01  1.000E+01  2.500E-02  1.212E+00
   1    5    9     4     2    9.9091E+00  1.8158E-01   9.7275E+00  0.000E+00  0.000E+00  0.000E+00  1.07154E+03  6.315E-01  1.000E+01  5.000E-02  1.211E+00
   1    6    8     4     3    9.7275E+00  1.2689E-01   9.6006E+00  0.000E+00  0.000E+00  0.000E+00  1.06381E+03  6.256E-01  1.000E+01  3.500E-02  1.209E+00
   1    6    8     5     1    1.0432E+01  2.2686E-01   1.0205E+01  0.000E+00  0.000E+00  0.000E+00  1.05868E+03  6.790E-01  1.542E+01  6.166E-02  1.226E+00
   1    7    7     5     2    1.0205E+01  2.7894E-01   9.9265E+00  0.000E+00  0.000E+00  0.000E+00  1.05417E+03  6.732E-01  1.519E+01  7.594E-02  1.224E+00
   1    8    7     5     3    9.9265E+00  1.9221E-01   9.7343E+00  0.000E+00  0.000E+00  0.000E+00  1.04992E+03  6.676E-01  1.497E+01  5.241E-02  1.223E+00
   1    8    6     5     4    9.7343E+00  1.3577E-01   9.5985E+00  0.000E+00  0.000E+00  0.000E+00  1.04691E+03  6.637E-01  1.482E+01  3.706E-02  1.221E+00
   1    9    6     6     1    3.7974E+01  2.7395E-01   3.7700E+01  0.000E+00  0.000E+00  0.000E+00  1.04429E+03  1.566E+00  1.200E+01  6.000E-02  1.522E+00
   1   10    7     6     2    3.7700E+01  2.7354E-01   3.7427E+01  0.000E+00  0.000E+00  0.000E+00  1.03974E+03  1.559E+00  1.200E+01  6.000E-02  1.520E+00
   1   11    7     6     3    3.7427E+01  2.7313E-01   3.7154E+01  0.000E+00  0.000E+00  0.000E+00  1.03519E+03  1.552E+00  1.200E+01  6.000E-02  1.517E+00
   1   12    7     6     4    3.7154E+01  2.7272E-01   3.6881E+01  0.000E+00  0.000E+00  0.000E+00  1.03064E+03  1.545E+00  1.200E+01  6.000E-02  1.515E+00
   1   13    7     6     5    3.6881E+01  1.5961E-02   3.6865E+01  0.000E+00  0.000E+00  0.000E+00  1.02745E+03  1.542E+00  1.200E+01  2.400E-02  2.217E-01
   1   14    9     7     1    1.5000E+02  1.3707E+00   1.4863E+02  0.000E+00  0.000E+00  0.000E+00  1.03987E+03  2.288E+00  5.529E+01  5.593E-01  8.169E-01
   1   13    8     7     2    1.4863E+02  1.9313E+00   1.4670E+02  0.000E+00  0.000E+00  0.000E+00  1.03478E+03  2.279E+00  5.525E+01  6.148E-01  1.047E+00
   1   13    7     7     3    1.4670E+02  1.6210E+00   1.4508E+02  0.000E+00  0.000E+00  0.000E+00  1.02969E+03  2.269E+00  5.521E+01  5.584E-01  9.677E-01
   1   13    6     8     1    1.8194E+02  1.1175E+00   1.8082E+02  0.000E+00  0.000E+00  0.000E+00  1.02490E+03  3.025E+00  4.386E+01  4.469E-01  8.334E-01
   1   13    5     8     2    1.8082E+02  3.3576E-01   1.8049E+02  0.000E+00  0.000E+00  0.000E+00  1.01865E+03  3.020E+00  4.379E+01  4.463E-01  2.508E-01
   1   13    4     8     3    1.8049E+02 -1.9870E+00   1.8248E+02  0.000E+00  0.000E+00  0.000E+00  1.01240E+03  3.025E+00  4.387E+01  4.470E+00 -1.482E-01
   1   13    3     8     4    1.8248E+02 -3.4373E+00   1.8591E+02  0.000E+00  0.000E+00  0.000E+00  1.00617E+03  3.042E+00  4.411E+01  4.495E+00 -2.549E-01
   1   13    2     8     5    1.8591E+02 -2.5168E+00   1.8843E+02  0.000E+00  0.000E+00  0.000E+00  9.99936E+02  3.061E+00  4.438E+01  4.522E+00 -1.855E-01
   1   13    1     8     6    1.8843E+02 -1.9240E+00   1.9035E+02  0.000E+00  0.000E+00  0.000E+00  9.94949E+02  3.074E+00  4.458E+01  2.726E+00 -2.353E-01
   1    8    6     9     1    0.0000E+00  0.0000E+00   0.0000E+00  0.000E+00  0.000E+00  0.000E+00  1.07875E+03  0.000E+00  4.000E+00  0.000E+00  1.000E+00
   1    8    5     9     2    0.0000E+00  0.0000E+00   0.0000E+00  0.000E+00  0.000E+00  0.000E+00  1.07825E+03  0.000E+00  4.000E+00  0.000E+00  1.000E+00





UNSATURATED ZONE PACKAGE VOLUMETRIC BUDGET FOR  TIME STEP    30 STRESS PERIOD   16
  ------------------------------------------------------------------------------



     CUMULATIVE VOLUMES      L**3       RATES FOR THIS TIME STEP      L**3/T
     ------------------                 ------------------------

           IN:                                      IN:
           ---                                      ---
        INFILTRATION =   525093704.9859          INFILTRATION =           0.8475

          OUT:                                     OUT:
          ----                                     ----
              UZF ET =   436444563.8687                UZF ET =           0.7500
        UZF RECHARGE =       73224.0000          UZF RECHARGE =       0.0000E+00

            IN - OUT =    88575917.1172              IN - OUT =       9.7500E-02

          STORAGE:                                 STORAGE:
          --------                                 --------
      STORAGE CHANGE =    88575885.9391        STORAGE CHANGE =       9.7500E-02

 PERCENT DISCREPANCY IS DIFFERENCE BETWEEN IN-OUT MINUS CHANGE IN STORAGE
 DIVIDED BY THE AVERAGE OF IN AND OUT TIMES 100

 PERCENT DISCREPANCY =           0.00     PERCENT DISCREPANCY =           0.00






1
  VOLUMETRIC BUDGET FOR AGRICULTURAL FIELDS AT  END OF TIME STEP   30, STRESS PERIOD  16
  ------------------------------------------------------------------------------

     CUMULATIVE VOLUMES      L**3       RATES FOR THIS TIME STEP      L**3/T
     ------------------                 ------------------------

           IN:                                      IN:
           ---                                      ---
               AG WELLS  =   300639168.0000                 AG WELLS  =           0.0000
      DIVERSION SEGMENTS =   190946272.0000        DIVERSION SEGMENTS =           0.0000
           GW IRRIGATION =           0.0000             GW IRRIGATION =           0.0000
           SW IRRIGATION =           0.0000             SW IRRIGATION =           0.0000
        SYSTEM LOSSES GW =           0.0000          SYSTEM LOSSES GW =           0.0000
        SYSTEM LOSSES SW =           0.0000          SYSTEM LOSSES SW =           0.0000

                TOTAL IN =   491585440.0000                  TOTAL IN =           0.0000

          OUT:                                     OUT:
          ----                                     ----
               AG WELLS  =           0.0000                 AG WELLS  =           0.0000
      DIVERSION SEGMENTS =           0.0000        DIVERSION SEGMENTS =           0.0000
           GW IRRIGATION =   300639168.0000             GW IRRIGATION =           0.0000
           SW IRRIGATION =   190950192.0000             SW IRRIGATION =           0.0000
        SYSTEM LOSSES GW =           0.0000          SYSTEM LOSSES GW =           0.0000
        SYSTEM LOSSES SW =           0.0000          SYSTEM LOSSES SW =           0.0000

               TOTAL OUT =   491589376.0000                 TOTAL OUT =           0.0000

                IN - OUT =       -3936.0000                  IN - OUT =           0.0000

     PERCENT DISCREPANCY =          -0.00         PERCENT DISCREPANCY =           0.00



1
  VOLUMETRIC BUDGET FOR ENTIRE MODEL AT END OF TIME STEP   30, STRESS PERIOD  16
  ------------------------------------------------------------------------------

     CUMULATIVE VOLUMES      L**3       RATES FOR THIS TIME STEP      L**3/T
     ------------------                 ------------------------

           IN:                                      IN:
           ---                                      ---
             STORAGE     =   461240128.0000               STORAGE     =           2.0853
       CONSTANT HEAD     =           0.0000         CONSTANT HEAD     =           0.0000
     HEAD DEP BOUNDS     =    11385141.0000       HEAD DEP BOUNDS     =           0.2881
      STREAM LEAKAGE     =   463803680.0000        STREAM LEAKAGE     =          12.6818
        UZF RECHARGE     =       73223.9531          UZF RECHARGE     =           0.0000
               GW ET     =           0.0000                 GW ET     =           0.0000
     SURFACE LEAKAGE     =           0.0000       SURFACE LEAKAGE     =           0.0000
           AG WELLS      =           0.0000             AG WELLS      =           0.0000

                TOTAL IN =   936502144.0000                  TOTAL IN =          15.0552

          OUT:                                     OUT:
          ----                                     ----
             STORAGE     =   220362944.0000               STORAGE     =           4.9001
       CONSTANT HEAD     =           0.0000         CONSTANT HEAD     =           0.0000
     HEAD DEP BOUNDS     =    11390820.0000       HEAD DEP BOUNDS     =           0.2909
      STREAM LEAKAGE     =   404117824.0000        STREAM LEAKAGE     =           9.8650
        UZF RECHARGE     =           0.0000          UZF RECHARGE     =           0.0000
               GW ET     =           0.0000                 GW ET     =           0.0000
     SURFACE LEAKAGE     =           0.0000       SURFACE LEAKAGE     =           0.0000
           AG WELLS      =   300639168.0000             AG WELLS      =           0.0000

               TOTAL OUT =   936510784.0000                 TOTAL OUT =          15.0560

                IN - OUT =       -8640.0000                  IN - OUT =      -8.0204E-04

     PERCENT DISCREPANCY =          -0.00         PERCENT DISCREPANCY =          -0.01






         TIME SUMMARY AT END OF TIME STEP   30 IN STRESS PERIOD   16
                    SECONDS     MINUTES      HOURS       DAYS        YEARS
                    -----------------------------------------------------------
   TIME STEP LENGTH  87667.      1461.1      24.352      1.0147     2.77799E-03
 STRESS PERIOD TIME 2.63000E+06  43833.      730.56      30.440     8.33397E-02
         TOTAL TIME 3.95364E+07 6.58940E+05  10982.      457.60      1.2528    
1
1
                            STRESS PERIOD NO.   17, LENGTH =   2630000.    
                            -----------------------------------------------

                              NUMBER OF TIME STEPS =    30

                               MULTIPLIER FOR DELT =     1.000

                            INITIAL TIME STEP SIZE =   87666.66    

 REUSING NON-PARAMETER GHB CELLS FROM LAST STRESS PERIOD

      2 GHB CELLS

 REUSING STREAM SEGMENT DATA FROM LAST STRESS PERIOD



            AREAL INFILTRATION RATE
 READING ON UNIT   19 WITH FORMAT: (FREE)              

            1           2           3           4           5           6           7           8           9          10
 ........................................................................................................................
   1   1.0000E-10  2.0000E-10   0.000       0.000       0.000       0.000       0.000       0.000       0.000       0.000    
   2   2.0000E-10  1.0000E-10  2.0000E-10   0.000       0.000      8.0000E-10  8.0000E-10  5.0000E-10   0.000       0.000    
   3    0.000      5.0000E-10  1.0000E-10  1.0000E-10  8.0000E-10  8.0000E-10  5.0000E-10  5.0000E-10   0.000       0.000    
   4   8.0000E-10  5.0000E-10  1.0000E-10  1.0000E-10  1.0000E-10  1.0000E-10  1.0000E-10  1.0000E-10  2.0000E-10   0.000    
   5   8.0000E-10  5.0000E-10  1.0000E-10  1.0000E-10  1.0000E-10  1.0000E-10  1.0000E-10  1.0000E-10  1.0000E-10  1.0000E-10
   6   8.0000E-10  5.0000E-10  5.0000E-10  2.0000E-10  2.0000E-10  1.0000E-10  1.0000E-10  1.0000E-10  1.0000E-10  5.0000E-10
   7   8.0000E-10  5.0000E-10  5.0000E-10  2.0000E-10  2.0000E-10  1.0000E-10  1.0000E-10  2.0000E-10  2.0000E-10   0.000    
   8    0.000      5.0000E-10  5.0000E-10  2.0000E-10  2.0000E-10  1.0000E-10  1.0000E-10  2.0000E-10  5.0000E-10   0.000    
   9    0.000      5.0000E-10  5.0000E-10  2.0000E-10  2.0000E-10  1.0000E-10  1.0000E-10  2.0000E-10  5.0000E-10   0.000    
  10    0.000      5.0000E-10  5.0000E-10  2.0000E-10  2.0000E-10  1.0000E-10  1.0000E-10  2.0000E-10  5.0000E-10  8.0000E-10
  11    0.000      1.0000E-10  1.0000E-10  1.0000E-10  1.0000E-10  1.0000E-10  1.0000E-10  2.0000E-10  5.0000E-10   0.000    
  12   1.0000E-10  1.0000E-10  1.0000E-10  1.0000E-10  1.0000E-10  1.0000E-10  1.0000E-10  1.0000E-10  2.0000E-10   0.000    
  13   1.0000E-10  1.0000E-10  2.0000E-10  2.0000E-10  2.0000E-10  2.0000E-10  2.0000E-10  1.0000E-10  1.0000E-10   0.000    
  14    0.000      2.0000E-10  5.0000E-10  5.0000E-10  5.0000E-10  5.0000E-10  5.0000E-10  2.0000E-10  1.0000E-10   0.000    
  15    0.000       0.000      8.0000E-10  8.0000E-10  8.0000E-10  8.0000E-10   0.000       0.000       0.000       0.000    

                  ET RATE =  2.500000E-08

 USING ET EXTINCTION DEPTH FROM PREVIOUS STRESS PERIOD. CURRENT PERIOD IS:      17

 USING EXTINCTION WATER CONTENT FROM PREVIOUS STRESS PERIOD. CURRENT PERIOD IS:      17

 USING AIR ENTRY PRESSURE FROM PREVIOUS STRESS PERIOD. CURRENT PERIOD IS:      17

 USING ROOT PRESSURE HEAD FROM PREVIOUS STRESS PERIOD. CURRENT PERIOD IS:      17

 USING ROOT ACTIVITY FROM PREVIOUS STRESS PERIOD. CURRENT PERIOD IS:      17

 PROCESSING AG STRESS PERIOD DATA

 READING AG STRESS PERIOD DATA

 READING IRRIGATION SEGMENT

 READING IRRIGATION WELL

 READING SUPPLEMENTAL WELL

 END PROCESSING AG STRESS PERIOD DATA OPTIONS
 
 SOLVING FOR HEAD 
                                                   Max.-Head-Change                         Max.-Flux-Residual
  Residual-Control   Outer-Iter.   Inner-Iter.     Column Row Layer    Maximum-Head-Change  Column Row Layer    Maximum-Flux-Residual          L2-NORM 
          0                 1           2             4    7     1       0.7177511802E-02       4    7    1         0.3756248068E+00      0.1061651960E+01
          0                 2           2             4    7     1      -0.1224302665E-01       4    7    1        -0.6575625452E+00      0.1603051533E+01
          0                 3           2             4    7     1       0.1206458028E-01       4    7    1         0.6660292490E+00      0.1635856761E+01
          0                 4           2             4    7     1      -0.4800633494E-03       4    7    1        -0.2724078200E-01      0.6792012727E-01
          0                 5           1             4   13     1      -0.8814835654E-05       4   13    1        -0.5346674816E-03      0.1210982683E-02

    ------------------------------------------------
       NWT REQUIRED            5 OUTER ITERATIONS 
       AND A TOTAL OF          9 INNER ITERATIONS.
    ------------------------------------------------

 NO OUTPUT CONTROL FOR STRESS PERIOD   17   TIME STEP    1
 
 SOLVING FOR HEAD 
                                                   Max.-Head-Change                         Max.-Flux-Residual
  Residual-Control   Outer-Iter.   Inner-Iter.     Column Row Layer    Maximum-Head-Change  Column Row Layer    Maximum-Flux-Residual          L2-NORM 
          0                 1           2             4    7     1       0.7126311824E-02       4    7    1         0.3729351057E+00      0.1047704927E+01
          0                 2           2             4    7     1      -0.6931970317E-03       4    7    1        -0.3729358773E-01      0.1046880118E+00
          0                 3           1             4    7     1       0.4720414063E-04       4    7    1         0.2610551710E-02      0.7320594070E-02

    ------------------------------------------------
       NWT REQUIRED            3 OUTER ITERATIONS 
       AND A TOTAL OF          5 INNER ITERATIONS.
    ------------------------------------------------

 NO OUTPUT CONTROL FOR STRESS PERIOD   17   TIME STEP    2
 
 SOLVING FOR HEAD 
                                                   Max.-Head-Change                         Max.-Flux-Residual
  Residual-Control   Outer-Iter.   Inner-Iter.     Column Row Layer    Maximum-Head-Change  Column Row Layer    Maximum-Flux-Residual          L2-NORM 
          0                 1           2             4    7     1       0.7075751296E-02       4    7    1         0.3702794160E+00      0.1039450004E+01
          0                 2           2             4    7     1      -0.1219251362E-01       4    7    1        -0.6548471298E+00      0.1597050402E+01
          0                 3           2             4    7     1       0.1202163060E-01       4    7    1         0.6636582968E+00      0.1630029207E+01
          0                 4           2             4    7     1      -0.4783543240E-03       4    7    1        -0.2714380887E-01      0.6767442988E-01
          0                 5           1             4   13     1      -0.8754595798E-05       4   13    1        -0.5309348453E-03      0.1206269345E-02

    ------------------------------------------------
       NWT REQUIRED            5 OUTER ITERATIONS 
       AND A TOTAL OF          9 INNER ITERATIONS.
    ------------------------------------------------

 NO OUTPUT CONTROL FOR STRESS PERIOD   17   TIME STEP    3
 
 SOLVING FOR HEAD 
                                                   Max.-Head-Change                         Max.-Flux-Residual
  Residual-Control   Outer-Iter.   Inner-Iter.     Column Row Layer    Maximum-Head-Change  Column Row Layer    Maximum-Flux-Residual          L2-NORM 
          0                 1           2             4    7     1       0.7025583774E-02       4    7    1         0.3676442252E+00      0.1028503176E+01
          0                 2           2             4    7     1      -0.6833989100E-03       4    7    1        -0.3676449773E-01      0.1028071247E+00
          0                 3           1             4    7     1       0.4653692531E-04       4    7    1         0.2573515414E-02      0.7192659930E-02

    ------------------------------------------------
       NWT REQUIRED            3 OUTER ITERATIONS 
       AND A TOTAL OF          5 INNER ITERATIONS.
    ------------------------------------------------

 NO OUTPUT CONTROL FOR STRESS PERIOD   17   TIME STEP    4
 
 SOLVING FOR HEAD 
                                                   Max.-Head-Change                         Max.-Flux-Residual
  Residual-Control   Outer-Iter.   Inner-Iter.     Column Row Layer    Maximum-Head-Change  Column Row Layer    Maximum-Flux-Residual          L2-NORM 
          0                 1           2             4    7     1       0.6976045747E-02       4    7    1         0.3650420868E+00      0.1021660701E+01
          0                 2           2             4    7     1      -0.1218429061E-01       4    7    1        -0.6544029075E+00      0.1596575311E+01
          0                 3           2             4    7     1       0.1202250616E-01       4    7    1         0.6637067141E+00      0.1630149479E+01
          0                 4           2             4    7     1      -0.4783891637E-03       4    7    1        -0.2714578915E-01      0.6767638536E-01
          0                 5           1             4   13     1      -0.8738952286E-05       4   13    1        -0.5300059929E-03      0.1203999703E-02

    ------------------------------------------------
       NWT REQUIRED            5 OUTER ITERATIONS 
       AND A TOTAL OF          9 INNER ITERATIONS.
    ------------------------------------------------

 NO OUTPUT CONTROL FOR STRESS PERIOD   17   TIME STEP    5
 
 SOLVING FOR HEAD 
                                                   Max.-Head-Change                         Max.-Flux-Residual
  Residual-Control   Outer-Iter.   Inner-Iter.     Column Row Layer    Maximum-Head-Change  Column Row Layer    Maximum-Flux-Residual          L2-NORM 
          0                 1           2             4    7     1       0.6927027879E-02       4    7    1         0.3624672394E+00      0.1012887377E+01
          0                 2           2             4    7     1      -0.6738120805E-03       4    7    1        -0.3624679726E-01      0.1012689187E+00
          0                 3           1             4    7     1       0.4588409771E-04       4    7    1         0.2537276366E-02      0.7086892490E-02

    ------------------------------------------------
       NWT REQUIRED            3 OUTER ITERATIONS 
       AND A TOTAL OF          5 INNER ITERATIONS.
    ------------------------------------------------

 NO OUTPUT CONTROL FOR STRESS PERIOD   17   TIME STEP    6
 
 SOLVING FOR HEAD 
                                                   Max.-Head-Change                         Max.-Flux-Residual
  Residual-Control   Outer-Iter.   Inner-Iter.     Column Row Layer    Maximum-Head-Change  Column Row Layer    Maximum-Flux-Residual          L2-NORM 
          0                 1           2             4    7     1       0.6878480991E-02       4    7    1         0.3599173807E+00      0.1006905408E+01
          0                 2           2             4    7     1      -0.1217538025E-01       4    7    1        -0.6539218467E+00      0.1595956509E+01
          0                 3           2             4    7     1       0.1202246368E-01       4    7    1         0.6637044518E+00      0.1630147626E+01
          0                 4           2             4    7     1      -0.4783874734E-03       4    7    1        -0.2714569661E-01      0.6767407527E-01
          0                 5           1             4   13     1      -0.8731541099E-05       4   13    1        -0.5295472574E-03      0.1204379000E-02

    ------------------------------------------------
       NWT REQUIRED            5 OUTER ITERATIONS 
       AND A TOTAL OF          9 INNER ITERATIONS.
    ------------------------------------------------

 NO OUTPUT CONTROL FOR STRESS PERIOD   17   TIME STEP    7
 
 SOLVING FOR HEAD 
                                                   Max.-Head-Change                         Max.-Flux-Residual
  Residual-Control   Outer-Iter.   Inner-Iter.     Column Row Layer    Maximum-Head-Change  Column Row Layer    Maximum-Flux-Residual          L2-NORM 
          0                 1           2             4    7     1       0.6830439905E-02       4    7    1         0.3573939034E+00      0.9997040715E+00
          0                 2           2             4    7     1      -0.6644166773E-03       4    7    1        -0.3573946182E-01      0.9996350120E-01
          0                 3           1             4    7     1       0.4524430583E-04       4    7    1         0.2501762902E-02      0.6996812172E-02

    ------------------------------------------------
       NWT REQUIRED            3 OUTER ITERATIONS 
       AND A TOTAL OF          5 INNER ITERATIONS.
    ------------------------------------------------

 NO OUTPUT CONTROL FOR STRESS PERIOD   17   TIME STEP    8
 
 SOLVING FOR HEAD 
                                                   Max.-Head-Change                         Max.-Flux-Residual
  Residual-Control   Outer-Iter.   Inner-Iter.     Column Row Layer    Maximum-Head-Change  Column Row Layer    Maximum-Flux-Residual          L2-NORM 
          0                 1           2             4    7     1       0.6782994984E-02       4    7    1         0.3549020565E+00      0.9942309502E+00
          0                 2           2             4    7     1      -0.1216666552E-01       4    7    1        -0.6534513665E+00      0.1595314863E+01
          0                 3           2             4    7     1       0.1202242813E-01       4    7    1         0.6637025725E+00      0.1630145952E+01
          0                 4           2             4    7     1      -0.4783860589E-03       4    7    1        -0.2714561974E-01      0.6767640945E-01
          0                 5           1             4   13     1      -0.8712051055E-05       4   13    1        -0.5277203782E-03      0.1204673945E-02

    ------------------------------------------------
       NWT REQUIRED            5 OUTER ITERATIONS 
       AND A TOTAL OF          9 INNER ITERATIONS.
    ------------------------------------------------

 NO OUTPUT CONTROL FOR STRESS PERIOD   17   TIME STEP    9
 
 SOLVING FOR HEAD 
                                                   Max.-Head-Change                         Max.-Flux-Residual
  Residual-Control   Outer-Iter.   Inner-Iter.     Column Row Layer    Maximum-Head-Change  Column Row Layer    Maximum-Flux-Residual          L2-NORM 
          0                 1           2             4    7     1       0.6736034613E-02       4    7    1         0.3524356961E+00      0.9881758722E+00
          0                 2           2             4    7     1      -0.6552335908E-03       4    7    1        -0.3524363935E-01      0.9881646649E-01
          0                 3           1             4    7     1       0.4461897257E-04       4    7    1         0.2467055333E-02      0.6917017842E-02

    ------------------------------------------------
       NWT REQUIRED            3 OUTER ITERATIONS 
       AND A TOTAL OF          5 INNER ITERATIONS.
    ------------------------------------------------

 NO OUTPUT CONTROL FOR STRESS PERIOD   17   TIME STEP   10
 
 SOLVING FOR HEAD 
                                                   Max.-Head-Change                         Max.-Flux-Residual
  Residual-Control   Outer-Iter.   Inner-Iter.     Column Row Layer    Maximum-Head-Change  Column Row Layer    Maximum-Flux-Residual          L2-NORM 
          0                 1           2             4    7     1       0.6689517690E-02       4    7    1         0.3499925530E+00      0.9829771150E+00
          0                 2           2             4    7     1      -0.1215813184E-01       4    7    1        -0.6529906936E+00      0.1594652432E+01
          0                 3           2             4    7     1       0.1202239095E-01       4    7    1         0.6637006048E+00      0.1630148262E+01
          0                 4           2             4    7     1      -0.4783845790E-03       4    7    1        -0.2714553924E-01      0.6767481152E-01
          0                 5           1             4   13     1      -0.8702935703E-05       4   13    1        -0.5272469216E-03      0.1204950778E-02

    ------------------------------------------------
       NWT REQUIRED            5 OUTER ITERATIONS 
       AND A TOTAL OF          9 INNER ITERATIONS.
    ------------------------------------------------

 NO OUTPUT CONTROL FOR STRESS PERIOD   17   TIME STEP   11
 
 SOLVING FOR HEAD 
                                                   Max.-Head-Change                         Max.-Flux-Residual
  Residual-Control   Outer-Iter.   Inner-Iter.     Column Row Layer    Maximum-Head-Change  Column Row Layer    Maximum-Flux-Residual          L2-NORM 
          0                 1           2             4    7     1       0.6643608856E-02       4    7    1         0.3475816384E+00      0.9777816117E+00
          0                 2           2             4    7     1      -0.6462430600E-03       4    7    1        -0.3475823190E-01      0.9777818150E-01
          0                 3           1             4    7     1       0.4400675065E-04       4    7    1         0.2433076804E-02      0.6844491768E-02

    ------------------------------------------------
       NWT REQUIRED            3 OUTER ITERATIONS 
       AND A TOTAL OF          5 INNER ITERATIONS.
    ------------------------------------------------

 NO OUTPUT CONTROL FOR STRESS PERIOD   17   TIME STEP   12
 
 SOLVING FOR HEAD 
                                                   Max.-Head-Change                         Max.-Flux-Residual
  Residual-Control   Outer-Iter.   Inner-Iter.     Column Row Layer    Maximum-Head-Change  Column Row Layer    Maximum-Flux-Residual          L2-NORM 
          0                 1           2             4    7     1       0.6598125520E-02       4    7    1         0.3451930339E+00      0.9727071192E+00
          0                 2           2             4    7     1      -0.1214978776E-01       4    7    1        -0.6525403039E+00      0.1593975348E+01
          0                 3           2             4    7     1       0.1202235380E-01       4    7    1         0.6636986417E+00      0.1630307974E+01
          0                 4           2             4    7     1      -0.4783831010E-03       4    7    1        -0.2714545897E-01      0.6741824920E-01
          0                 5           1             2   13     1      -0.7505459830E-05       2   13    1        -0.4468618718E-03      0.1087212799E-02

    ------------------------------------------------
       NWT REQUIRED            5 OUTER ITERATIONS 
       AND A TOTAL OF          9 INNER ITERATIONS.
    ------------------------------------------------

 NO OUTPUT CONTROL FOR STRESS PERIOD   17   TIME STEP   13
 
 SOLVING FOR HEAD 
                                                   Max.-Head-Change                         Max.-Flux-Residual
  Residual-Control   Outer-Iter.   Inner-Iter.     Column Row Layer    Maximum-Head-Change  Column Row Layer    Maximum-Flux-Residual          L2-NORM 
          0                 1           2             4    7     1       0.6553100084E-02       4    7    1         0.3428283435E+00      0.9681539870E+00
          0                 2           2             4    7     1      -0.6374390009E-03       4    7    1        -0.3428290080E-01      0.9681362755E-01
          0                 3           1             4    7     1       0.4340722766E-04       4    7    1         0.2399803653E-02      0.6776795981E-02

    ------------------------------------------------
       NWT REQUIRED            3 OUTER ITERATIONS 
       AND A TOTAL OF          5 INNER ITERATIONS.
    ------------------------------------------------

 NO OUTPUT CONTROL FOR STRESS PERIOD   17   TIME STEP   14
 
 SOLVING FOR HEAD 
                                                   Max.-Head-Change                         Max.-Flux-Residual
  Residual-Control   Outer-Iter.   Inner-Iter.     Column Row Layer    Maximum-Head-Change  Column Row Layer    Maximum-Flux-Residual          L2-NORM 
          0                 1           2             4    7     1       0.6508624812E-02       4    7    1         0.3404929080E+00      0.9631187901E+00
          0                 2           2             4    7     1      -0.1214161441E-01       4    7    1        -0.6520991384E+00      0.1593286764E+01
          0                 3           2             4    7     1       0.1202231540E-01       4    7    1         0.6636966090E+00      0.1630509176E+01
          0                 4           2             4    7     1      -0.4783815730E-03       4    7    1        -0.2714537582E-01      0.6710298953E-01
          0                 5           1             4    7     1       0.5898648384E-05       4    7    1         0.3440153612E-03      0.9244960236E-03

    ------------------------------------------------
       NWT REQUIRED            5 OUTER ITERATIONS 
       AND A TOTAL OF          9 INNER ITERATIONS.
    ------------------------------------------------

 NO OUTPUT CONTROL FOR STRESS PERIOD   17   TIME STEP   15
 
 SOLVING FOR HEAD 
                                                   Max.-Head-Change                         Max.-Flux-Residual
  Residual-Control   Outer-Iter.   Inner-Iter.     Column Row Layer    Maximum-Head-Change  Column Row Layer    Maximum-Flux-Residual          L2-NORM 
          0                 1           2             4    7     1       0.6464587706E-02       4    7    1         0.3381804672E+00      0.9590609563E+00
          0                 2           2             4    7     1      -0.6288291369E-03       4    7    1        -0.3381811164E-01      0.9590082041E-01
          0                 3           1             4    7     1       0.4282092762E-04       4    7    1         0.2367268395E-02      0.6712598459E-02

    ------------------------------------------------
       NWT REQUIRED            3 OUTER ITERATIONS 
       AND A TOTAL OF          5 INNER ITERATIONS.
    ------------------------------------------------

 NO OUTPUT CONTROL FOR STRESS PERIOD   17   TIME STEP   16
 
 SOLVING FOR HEAD 
                                                   Max.-Head-Change                         Max.-Flux-Residual
  Residual-Control   Outer-Iter.   Inner-Iter.     Column Row Layer    Maximum-Head-Change  Column Row Layer    Maximum-Flux-Residual          L2-NORM 
          0                 1           2             4    7     1       0.6420949654E-02       4    7    1         0.3358889435E+00      0.9540098179E+00
          0                 2           2             4    7     1      -0.1213360762E-01       4    7    1        -0.6516669931E+00      0.1592590092E+01
          0                 3           2             4    7     1       0.1202227762E-01       4    7    1         0.6636946117E+00      0.1630517990E+01
          0                 4           2             4    7     1      -0.4783800693E-03       4    7    1        -0.2714529411E-01      0.6710243623E-01
          0                 5           1             4    7     1       0.5898630014E-05       4    7    1         0.3440143321E-03      0.9244198096E-03

    ------------------------------------------------
       NWT REQUIRED            5 OUTER ITERATIONS 
       AND A TOTAL OF          9 INNER ITERATIONS.
    ------------------------------------------------

 NO OUTPUT CONTROL FOR STRESS PERIOD   17   TIME STEP   17
 
 SOLVING FOR HEAD 
                                                   Max.-Head-Change                         Max.-Flux-Residual
  Residual-Control   Outer-Iter.   Inner-Iter.     Column Row Layer    Maximum-Head-Change  Column Row Layer    Maximum-Flux-Residual          L2-NORM 
          0                 1           2             4    7     1       0.6377876460E-02       4    7    1         0.3336272437E+00      0.9503386634E+00
          0                 2           2             4    7     1      -0.6203944747E-03       4    7    1        -0.3336278778E-01      0.9502410954E-01
          0                 3           1             4    7     1       0.4224655851E-04       4    7    1         0.2335395721E-02      0.6650714921E-02

    ------------------------------------------------
       NWT REQUIRED            3 OUTER ITERATIONS 
       AND A TOTAL OF          5 INNER ITERATIONS.
    ------------------------------------------------

 NO OUTPUT CONTROL FOR STRESS PERIOD   17   TIME STEP   18
 
 SOLVING FOR HEAD 
                                                   Max.-Head-Change                         Max.-Flux-Residual
  Residual-Control   Outer-Iter.   Inner-Iter.     Column Row Layer    Maximum-Head-Change  Column Row Layer    Maximum-Flux-Residual          L2-NORM 
          0                 1           2             4    7     1       0.6335187669E-02       4    7    1         0.3313857141E+00      0.9452484644E+00
          0                 2           2             4    7     1      -0.1212577480E-01       4    7    1        -0.6512442656E+00      0.1591889558E+01
          0                 3           2             4    7     1       0.1202223988E-01       4    7    1         0.6636926180E+00      0.1630527522E+01
          0                 4           2             4    7     1      -0.4783785677E-03       4    7    1        -0.2714521257E-01      0.6710353695E-01
          0                 5           1             4    7     1       0.5898611420E-05       4    7    1         0.3440132900E-03      0.9241691376E-03

    ------------------------------------------------
       NWT REQUIRED            5 OUTER ITERATIONS 
       AND A TOTAL OF          9 INNER ITERATIONS.
    ------------------------------------------------

 NO OUTPUT CONTROL FOR STRESS PERIOD   17   TIME STEP   19
 
 SOLVING FOR HEAD 
                                                   Max.-Head-Change                         Max.-Flux-Residual
  Residual-Control   Outer-Iter.   Inner-Iter.     Column Row Layer    Maximum-Head-Change  Column Row Layer    Maximum-Flux-Residual          L2-NORM 
          0                 1           2             4    7     1       0.6292911206E-02       4    7    1         0.3291658669E+00      0.9418841821E+00
          0                 2           2             4    7     1      -0.6121296512E-03       4    7    1        -0.3291664867E-01      0.9417346467E-01
          0                 3           1             4    7     1       0.4168375503E-04       4    7    1         0.2304165987E-02      0.6590535530E-02

    ------------------------------------------------
       NWT REQUIRED            3 OUTER ITERATIONS 
       AND A TOTAL OF          5 INNER ITERATIONS.
    ------------------------------------------------

 NO OUTPUT CONTROL FOR STRESS PERIOD   17   TIME STEP   20
 
 SOLVING FOR HEAD 
                                                   Max.-Head-Change                         Max.-Flux-Residual
  Residual-Control   Outer-Iter.   Inner-Iter.     Column Row Layer    Maximum-Head-Change  Column Row Layer    Maximum-Flux-Residual          L2-NORM 
          0                 1           2             4    7     1       0.6251145261E-02       4    7    1         0.3269730121E+00      0.9367395130E+00
          0                 2           2             4    7     1      -0.1211809711E-01       4    7    1        -0.6508299353E+00      0.1591186248E+01
          0                 3           2             4    7     1       0.1202220089E-01       4    7    1         0.6636905564E+00      0.1630536482E+01
          0                 4           2             4    7     1      -0.4783770160E-03       4    7    1        -0.2714512824E-01      0.6710390214E-01
          0                 5           1             4    7     1       0.5898592041E-05       4    7    1         0.3440122027E-03      0.9257834840E-03

    ------------------------------------------------
       NWT REQUIRED            5 OUTER ITERATIONS 
       AND A TOTAL OF          9 INNER ITERATIONS.
    ------------------------------------------------

 NO OUTPUT CONTROL FOR STRESS PERIOD   17   TIME STEP   21
 
 SOLVING FOR HEAD 
                                                   Max.-Head-Change                         Max.-Flux-Residual
  Residual-Control   Outer-Iter.   Inner-Iter.     Column Row Layer    Maximum-Head-Change  Column Row Layer    Maximum-Flux-Residual          L2-NORM 
          0                 1           2             4    7     1       0.6209776938E-02       4    7    1         0.3248009973E+00      0.9336259796E+00
          0                 2           2             4    7     1      -0.6040429335E-03       4    7    1        -0.3248016034E-01      0.9334300915E-01
          0                 3           1             4    7     1       0.4113307987E-04       4    7    1         0.2273611808E-02      0.6532134023E-02

    ------------------------------------------------
       NWT REQUIRED            3 OUTER ITERATIONS 
       AND A TOTAL OF          5 INNER ITERATIONS.
    ------------------------------------------------

 NO OUTPUT CONTROL FOR STRESS PERIOD   17   TIME STEP   22
 
 SOLVING FOR HEAD 
                                                   Max.-Head-Change                         Max.-Flux-Residual
  Residual-Control   Outer-Iter.   Inner-Iter.     Column Row Layer    Maximum-Head-Change  Column Row Layer    Maximum-Flux-Residual          L2-NORM 
          0                 1           2             4    7     1       0.6168904329E-02       4    7    1         0.3226552443E+00      0.9284363924E+00
          0                 2           2             4    7     1      -0.1211058474E-01       4    7    1        -0.6504245620E+00      0.1590484398E+01
          0                 3           2             4    7     1       0.1202216352E-01       4    7    1         0.6636885854E+00      0.1630545404E+01
          0                 4           2             4    7     1      -0.4783755291E-03       4    7    1        -0.2714504763E-01      0.6710424474E-01
          0                 5           1             4    7     1       0.5898573783E-05       4    7    1         0.3440111880E-03      0.9242633357E-03

    ------------------------------------------------
       NWT REQUIRED            5 OUTER ITERATIONS 
       AND A TOTAL OF          9 INNER ITERATIONS.
    ------------------------------------------------

 NO OUTPUT CONTROL FOR STRESS PERIOD   17   TIME STEP   23
 
 SOLVING FOR HEAD 
                                                   Max.-Head-Change                         Max.-Flux-Residual
  Residual-Control   Outer-Iter.   Inner-Iter.     Column Row Layer    Maximum-Head-Change  Column Row Layer    Maximum-Flux-Residual          L2-NORM 
          0                 1           2             4    7     1       0.6128279007E-02       4    7    1         0.3205221826E+00      0.9255365058E+00
          0                 2           2             4    7     1      -0.5961153874E-03       4    7    1        -0.3205227755E-01      0.9252911184E-01
          0                 3           1             4    7     1       0.4059324317E-04       4    7    1         0.2243660010E-02      0.6474781648E-02

    ------------------------------------------------
       NWT REQUIRED            3 OUTER ITERATIONS 
       AND A TOTAL OF          5 INNER ITERATIONS.
    ------------------------------------------------

 NO OUTPUT CONTROL FOR STRESS PERIOD   17   TIME STEP   24
 
 SOLVING FOR HEAD 
                                                   Max.-Head-Change                         Max.-Flux-Residual
  Residual-Control   Outer-Iter.   Inner-Iter.     Column Row Layer    Maximum-Head-Change  Column Row Layer    Maximum-Flux-Residual          L2-NORM 
          0                 1           2             4    7     1       0.6088277744E-02       4    7    1         0.3184223183E+00      0.9202955481E+00
          0                 2           2             4    7     1      -0.1210321837E-01       4    7    1        -0.6500270770E+00      0.1589784059E+01
          0                 3           2             4    7     1       0.1202212536E-01       4    7    1         0.6636865705E+00      0.1630554319E+01
          0                 4           2             4    7     1      -0.4783740106E-03       4    7    1        -0.2714496521E-01      0.6710479902E-01
          0                 5           1             4    7     1       0.5898555188E-05       4    7    1         0.3440101566E-03      0.9253039862E-03

    ------------------------------------------------
       NWT REQUIRED            5 OUTER ITERATIONS 
       AND A TOTAL OF          9 INNER ITERATIONS.
    ------------------------------------------------

 NO OUTPUT CONTROL FOR STRESS PERIOD   17   TIME STEP   25
 
 SOLVING FOR HEAD 
                                                   Max.-Head-Change                         Max.-Flux-Residual
  Residual-Control   Outer-Iter.   Inner-Iter.     Column Row Layer    Maximum-Head-Change  Column Row Layer    Maximum-Flux-Residual          L2-NORM 
          0                 1           2             4    7     1       0.6048509577E-02       4    7    1         0.3163344195E+00      0.9175837283E+00
          0                 2           2             4    7     1      -0.5883559779E-03       4    7    1        -0.3163349995E-01      0.9172920760E-01
          0                 3           1             4    7     1       0.4006485648E-04       4    7    1         0.2214345586E-02      0.6418362017E-02

    ------------------------------------------------
       NWT REQUIRED            3 OUTER ITERATIONS 
       AND A TOTAL OF          5 INNER ITERATIONS.
    ------------------------------------------------

 NO OUTPUT CONTROL FOR STRESS PERIOD   17   TIME STEP   26
 
 SOLVING FOR HEAD 
                                                   Max.-Head-Change                         Max.-Flux-Residual
  Residual-Control   Outer-Iter.   Inner-Iter.     Column Row Layer    Maximum-Head-Change  Column Row Layer    Maximum-Flux-Residual          L2-NORM 
          0                 1           2             4    7     1       0.6009216752E-02       4    7    1         0.3142716629E+00      0.9122915208E+00
          0                 2           2             4    7     1      -0.1209599437E-01       4    7    1        -0.6496372825E+00      0.1589088411E+01
          0                 3           2             4    7     1       0.1202208724E-01       4    7    1         0.6636845574E+00      0.1630562886E+01
          0                 4           2             4    7     1      -0.4783724936E-03       4    7    1        -0.2714488288E-01      0.6710493667E-01
          0                 5           1             4    7     1       0.5898536258E-05       4    7    1         0.3440090979E-03      0.9245355571E-03

    ------------------------------------------------
       NWT REQUIRED            5 OUTER ITERATIONS 
       AND A TOTAL OF          9 INNER ITERATIONS.
    ------------------------------------------------

 NO OUTPUT CONTROL FOR STRESS PERIOD   17   TIME STEP   27
 
 SOLVING FOR HEAD 
                                                   Max.-Head-Change                         Max.-Flux-Residual
  Residual-Control   Outer-Iter.   Inner-Iter.     Column Row Layer    Maximum-Head-Change  Column Row Layer    Maximum-Flux-Residual          L2-NORM 
          0                 1           2             4    7     1       0.5970418785E-02       4    7    1         0.3122351808E+00      0.9097461448E+00
          0                 2           2             4    7     1      -0.5807598554E-03       4    7    1        -0.3122357487E-01      0.9094116479E-01
          0                 3           1             4    7     1       0.3954758894E-04       4    7    1         0.2185650824E-02      0.6362793887E-02

    ------------------------------------------------
       NWT REQUIRED            3 OUTER ITERATIONS 
       AND A TOTAL OF          5 INNER ITERATIONS.
    ------------------------------------------------

 NO OUTPUT CONTROL FOR STRESS PERIOD   17   TIME STEP   28
 
 SOLVING FOR HEAD 
                                                   Max.-Head-Change                         Max.-Flux-Residual
  Residual-Control   Outer-Iter.   Inner-Iter.     Column Row Layer    Maximum-Head-Change  Column Row Layer    Maximum-Flux-Residual          L2-NORM 
          0                 1           2             4    7     1       0.5931942284E-02       4    7    1         0.3102153925E+00      0.9044257814E+00
          0                 2           2             4    7     1      -0.1208893423E-01       4    7    1        -0.6492563902E+00      0.1588398492E+01
          0                 3           2             4    7     1       0.1202205063E-01       4    7    1         0.6636826311E+00      0.1630571426E+01
          0                 4           2             4    7     1      -0.4783710365E-03       4    7    1        -0.2714480409E-01      0.6710496439E-01
          0                 5           1             4    7     1       0.5898518223E-05       4    7    1         0.3440080827E-03      0.9242190489E-03

    ------------------------------------------------
       NWT REQUIRED            5 OUTER ITERATIONS 
       AND A TOTAL OF          9 INNER ITERATIONS.
    ------------------------------------------------

 NO OUTPUT CONTROL FOR STRESS PERIOD   17   TIME STEP   29
 
 SOLVING FOR HEAD 
                                                   Max.-Head-Change                         Max.-Flux-Residual
  Residual-Control   Outer-Iter.   Inner-Iter.     Column Row Layer    Maximum-Head-Change  Column Row Layer    Maximum-Flux-Residual          L2-NORM 
          0                 1           2             4    7     1       0.5893786556E-02       4    7    1         0.3082138712E+00      0.8857327895E+00
          0                 2           2             4    7     1      -0.5733056120E-03       4    7    1        -0.3082144276E-01      0.8857209805E-01
          0                 3           1             4    7     1       0.3903998252E-04       4    7    1         0.2157501566E-02      0.6199913171E-02

    ------------------------------------------------
       NWT REQUIRED            3 OUTER ITERATIONS 
       AND A TOTAL OF          5 INNER ITERATIONS.
    ------------------------------------------------

 NO OUTPUT CONTROL FOR STRESS PERIOD   17   TIME STEP   30



 STREAM LISTING     PERIOD     17   STEP       30

 LAYER ROW COL. STREAM  RCH.  FLOW INTO     FLOW TO   FLOW OUT OF   OVRLND.     DIRECT     STREAM       STREAM     STREAM     STREAM   STREAMBED  STREAMBED
                SEG.NO.  NO.  STRM. RCH.    AQUIFER    STRM. RCH.    RUNOFF     PRECIP       ET          HEAD       DEPTH      WIDTH   CONDCTNC.   GRADIENT

   1    1    1     1     1    2.4716E+01  2.4383E-01   2.4472E+01  0.000E+00  0.000E+00  0.000E+00  1.09422E+03  1.174E+00  1.298E+01  5.842E-02  1.391E+00
   1    2    2     1     2    2.4472E+01  3.7705E-01   2.4095E+01  0.000E+00  0.000E+00  0.000E+00  1.08923E+03  1.169E+00  1.292E+01  9.043E-02  1.390E+00
   1    3    3     1     3    2.4095E+01  3.2100E-01   2.3774E+01  0.000E+00  0.000E+00  0.000E+00  1.08358E+03  1.164E+00  1.285E+01  7.709E-02  1.388E+00
   1    3    4     1     4    2.3774E+01  2.9513E-01   2.3479E+01  0.000E+00  0.000E+00  0.000E+00  1.07857E+03  1.159E+00  1.278E+01  7.096E-02  1.386E+00
   1    4    5     2     1    2.1479E+01  3.1960E-01   2.1159E+01  0.000E+00  0.000E+00  0.000E+00  1.07303E+03  1.097E+00  1.200E+01  7.800E-02  1.366E+00
   1    5    6     2     2    2.1159E+01  2.4532E-01   2.0914E+01  0.000E+00  0.000E+00  0.000E+00  1.06760E+03  1.089E+00  1.200E+01  6.000E-02  1.363E+00
   1    6    6     2     3    2.0914E+01  2.4487E-01   2.0669E+01  0.000E+00  0.000E+00  0.000E+00  1.06287E+03  1.081E+00  1.200E+01  6.000E-02  1.360E+00
   1    7    6     2     4    2.0669E+01  2.4441E-01   2.0424E+01  0.000E+00  0.000E+00  0.000E+00  1.05815E+03  1.073E+00  1.200E+01  6.000E-02  1.358E+00
   1    8    6     2     5    2.0424E+01  2.4395E-01   2.0180E+01  0.000E+00  0.000E+00  0.000E+00  1.05342E+03  1.066E+00  1.200E+01  6.000E-02  1.355E+00
   1    3    5     3     1    2.0000E+00  2.8252E-01   1.7175E+00  0.000E+00  0.000E+00  0.000E+00  1.07555E+03  1.909E+00  9.636E+00  7.227E-02  1.955E+00
   1    3    6     3     2    1.7175E+00  2.4905E-01   1.4684E+00  0.000E+00  0.000E+00  0.000E+00  1.07264E+03  1.727E+00  8.909E+00  6.682E-02  1.864E+00
   1    3    7     3     3    1.4684E+00  1.9718E-01   1.2712E+00  0.000E+00  0.000E+00  0.000E+00  1.06987E+03  1.555E+00  8.218E+00  5.547E-02  1.777E+00
   1    4    8     3     4    1.2712E+00  2.2567E-01   1.0456E+00  0.000E+00  0.000E+00  0.000E+00  1.06682E+03  1.364E+00  7.455E+00  6.709E-02  1.682E+00
   1    5    8     3     5    1.0456E+00  1.5790E-01   8.8768E-01  0.000E+00  0.000E+00  0.000E+00  1.06362E+03  1.164E+00  6.655E+00  4.991E-02  1.582E+00
   1    6    8     3     6    8.8768E-01  5.5980E-02   8.3170E-01  0.000E+00  0.000E+00  0.000E+00  1.06158E+03  1.036E+00  6.145E+00  1.844E-02  1.518E+00
   1    5   10     4     1    1.0000E+01  9.0919E-02   9.9091E+00  0.000E+00  0.000E+00  0.000E+00  1.07836E+03  6.368E-01  1.000E+01  2.500E-02  1.212E+00
   1    5    9     4     2    9.9091E+00  1.8158E-01   9.7275E+00  0.000E+00  0.000E+00  0.000E+00  1.07154E+03  6.315E-01  1.000E+01  5.000E-02  1.211E+00
   1    6    8     4     3    9.7275E+00  1.2689E-01   9.6006E+00  0.000E+00  0.000E+00  0.000E+00  1.06381E+03  6.256E-01  1.000E+01  3.500E-02  1.209E+00
   1    6    8     5     1    1.0432E+01  2.2686E-01   1.0205E+01  0.000E+00  0.000E+00  0.000E+00  1.05868E+03  6.790E-01  1.542E+01  6.166E-02  1.226E+00
   1    7    7     5     2    1.0205E+01  2.7894E-01   9.9265E+00  0.000E+00  0.000E+00  0.000E+00  1.05417E+03  6.732E-01  1.519E+01  7.594E-02  1.224E+00
   1    8    7     5     3    9.9265E+00  1.9221E-01   9.7343E+00  0.000E+00  0.000E+00  0.000E+00  1.04992E+03  6.676E-01  1.497E+01  5.241E-02  1.223E+00
   1    8    6     5     4    9.7343E+00  1.3577E-01   9.5985E+00  0.000E+00  0.000E+00  0.000E+00  1.04691E+03  6.637E-01  1.482E+01  3.706E-02  1.221E+00
   1    9    6     6     1    2.9779E+01  2.6116E-01   2.9518E+01  0.000E+00  0.000E+00  0.000E+00  1.04408E+03  1.353E+00  1.200E+01  6.000E-02  1.451E+00
   1   10    7     6     2    2.9518E+01  2.6073E-01   2.9257E+01  0.000E+00  0.000E+00  0.000E+00  1.03953E+03  1.345E+00  1.200E+01  6.000E-02  1.448E+00
   1   11    7     6     3    2.9257E+01  2.6030E-01   2.8997E+01  0.000E+00  0.000E+00  0.000E+00  1.03497E+03  1.338E+00  1.200E+01  6.000E-02  1.446E+00
   1   12    7     6     4    2.8997E+01  2.5987E-01   2.8737E+01  0.000E+00  0.000E+00  0.000E+00  1.03042E+03  1.331E+00  1.200E+01  6.000E-02  1.444E+00
   1   13    7     6     5    2.8737E+01  1.0960E-02   2.8726E+01  0.000E+00  0.000E+00  0.000E+00  1.02724E+03  1.327E+00  1.200E+01  2.400E-02  1.522E-01
   1   14    9     7     1    1.5000E+02  1.3712E+00   1.4863E+02  0.000E+00  0.000E+00  0.000E+00  1.03987E+03  2.288E+00  5.529E+01  5.593E-01  8.172E-01
   1   13    8     7     2    1.4863E+02  1.9337E+00   1.4670E+02  0.000E+00  0.000E+00  0.000E+00  1.03478E+03  2.279E+00  5.525E+01  6.148E-01  1.049E+00
   1   13    7     7     3    1.4670E+02  1.6243E+00   1.4507E+02  0.000E+00  0.000E+00  0.000E+00  1.02969E+03  2.269E+00  5.521E+01  5.584E-01  9.696E-01
   1   13    6     8     1    1.7380E+02  1.0814E+00   1.7272E+02  0.000E+00  0.000E+00  0.000E+00  1.02485E+03  2.973E+00  4.311E+01  4.393E-01  8.205E-01
   1   13    5     8     2    1.7272E+02  3.1115E-01   1.7240E+02  0.000E+00  0.000E+00  0.000E+00  1.01859E+03  2.969E+00  4.305E+01  4.387E-01  2.364E-01
   1   13    4     8     3    1.7240E+02 -2.0066E+00   1.7441E+02  0.000E+00  0.000E+00  0.000E+00  1.01235E+03  2.974E+00  4.313E+01  4.395E+00 -1.522E-01
   1   13    3     8     4    1.7441E+02 -3.4420E+00   1.7785E+02  0.000E+00  0.000E+00  0.000E+00  1.00612E+03  2.992E+00  4.338E+01  4.421E+00 -2.595E-01
   1   13    2     8     5    1.7785E+02 -2.5255E+00   1.8038E+02  0.000E+00  0.000E+00  0.000E+00  9.99886E+02  3.011E+00  4.365E+01  4.448E+00 -1.892E-01
   1   13    1     8     6    1.8038E+02 -1.9741E+00   1.8235E+02  0.000E+00  0.000E+00  0.000E+00  9.94900E+02  3.025E+00  4.386E+01  2.682E+00 -2.454E-01
   1    8    6     9     1    3.3198E-07  0.0000E+00   3.3198E-07  0.000E+00  0.000E+00  0.000E+00  1.07875E+03  5.785E-05  4.000E+00  0.000E+00  1.000E+00
   1    8    5     9     2    3.3198E-07  0.0000E+00   3.3198E-07  0.000E+00  0.000E+00  0.000E+00  1.07825E+03  5.785E-05  4.000E+00  0.000E+00  1.000E+00





UNSATURATED ZONE PACKAGE VOLUMETRIC BUDGET FOR  TIME STEP    30 STRESS PERIOD   17
  ------------------------------------------------------------------------------



     CUMULATIVE VOLUMES      L**3       RATES FOR THIS TIME STEP      L**3/T
     ------------------                 ------------------------

           IN:                                      IN:
           ---                                      ---
        INFILTRATION =   537077785.2347          INFILTRATION =           0.8475

          OUT:                                     OUT:
          ----                                     ----
              UZF ET =   449151328.5336                UZF ET =           4.5675
        UZF RECHARGE =       73224.0000          UZF RECHARGE =       0.0000E+00

            IN - OUT =    87853232.7010              IN - OUT =          -3.7200

          STORAGE:                                 STORAGE:
          --------                                 --------
      STORAGE CHANGE =    87853212.7854        STORAGE CHANGE =          -3.7200

 PERCENT DISCREPANCY IS DIFFERENCE BETWEEN IN-OUT MINUS CHANGE IN STORAGE
 DIVIDED BY THE AVERAGE OF IN AND OUT TIMES 100

 PERCENT DISCREPANCY =           0.00     PERCENT DISCREPANCY =          -0.00






1
  VOLUMETRIC BUDGET FOR AGRICULTURAL FIELDS AT  END OF TIME STEP   30, STRESS PERIOD  17
  ------------------------------------------------------------------------------

     CUMULATIVE VOLUMES      L**3       RATES FOR THIS TIME STEP      L**3/T
     ------------------                 ------------------------

           IN:                                      IN:
           ---                                      ---
               AG WELLS  =   300639168.0000                 AG WELLS  =       1.1066E-07
      DIVERSION SEGMENTS =   200701248.0000        DIVERSION SEGMENTS =       3.3198E-07
           GW IRRIGATION =           0.0000             GW IRRIGATION =           0.0000
           SW IRRIGATION =           0.0000             SW IRRIGATION =           0.0000
        SYSTEM LOSSES GW =           0.0000          SYSTEM LOSSES GW =           0.0000
        SYSTEM LOSSES SW =           0.0000          SYSTEM LOSSES SW =           0.0000

                TOTAL IN =   501340416.0000                  TOTAL IN =       4.4264E-07

          OUT:                                     OUT:
          ----                                     ----
               AG WELLS  =           0.0000                 AG WELLS  =           0.0000
      DIVERSION SEGMENTS =           0.0000        DIVERSION SEGMENTS =           0.0000
           GW IRRIGATION =   300639168.0000             GW IRRIGATION =       1.1066E-07
           SW IRRIGATION =   200705360.0000             SW IRRIGATION =       3.3199E-07
        SYSTEM LOSSES GW =           0.0000          SYSTEM LOSSES GW =           0.0000
        SYSTEM LOSSES SW =           0.0000          SYSTEM LOSSES SW =           0.0000

               TOTAL OUT =   501344512.0000                 TOTAL OUT =       4.4265E-07

                IN - OUT =       -4096.0000                  IN - OUT =      -6.5938E-12

     PERCENT DISCREPANCY =          -0.00         PERCENT DISCREPANCY =          -0.00



1
  VOLUMETRIC BUDGET FOR ENTIRE MODEL AT END OF TIME STEP   30, STRESS PERIOD  17
  ------------------------------------------------------------------------------

     CUMULATIVE VOLUMES      L**3       RATES FOR THIS TIME STEP      L**3/T
     ------------------                 ------------------------

           IN:                                      IN:
           ---                                      ---
             STORAGE     =   467048992.0000               STORAGE     =           1.7979
       CONSTANT HEAD     =           0.0000         CONSTANT HEAD     =           0.0000
     HEAD DEP BOUNDS     =    12142980.0000       HEAD DEP BOUNDS     =           0.2882
      STREAM LEAKAGE     =   496419520.0000        STREAM LEAKAGE     =          12.3114
        UZF RECHARGE     =       73223.9531          UZF RECHARGE     =           0.0000
               GW ET     =           0.0000                 GW ET     =           0.0000
     SURFACE LEAKAGE     =           0.0000       SURFACE LEAKAGE     =           0.0000
           AG WELLS      =           0.0000             AG WELLS      =           0.0000

                TOTAL IN =   975684736.0000                  TOTAL IN =          14.3975

          OUT:                                     OUT:
          ----                                     ----
             STORAGE     =   232087584.0000               STORAGE     =           4.1598
       CONSTANT HEAD     =           0.0000         CONSTANT HEAD     =           0.0000
     HEAD DEP BOUNDS     =    12154705.0000       HEAD DEP BOUNDS     =           0.2902
      STREAM LEAKAGE     =   430812768.0000        STREAM LEAKAGE     =           9.9482
        UZF RECHARGE     =           0.0000          UZF RECHARGE     =           0.0000
               GW ET     =           0.0000                 GW ET     =           0.0000
     SURFACE LEAKAGE     =           0.0000       SURFACE LEAKAGE     =           0.0000
           AG WELLS      =   300639168.0000             AG WELLS      =       1.1066E-07

               TOTAL OUT =   975694208.0000                 TOTAL OUT =          14.3981

                IN - OUT =       -9472.0000                  IN - OUT =      -6.7234E-04

     PERCENT DISCREPANCY =          -0.00         PERCENT DISCREPANCY =          -0.00






         TIME SUMMARY AT END OF TIME STEP   30 IN STRESS PERIOD   17
                    SECONDS     MINUTES      HOURS       DAYS        YEARS
                    -----------------------------------------------------------
   TIME STEP LENGTH  87667.      1461.1      24.352      1.0147     2.77799E-03
 STRESS PERIOD TIME 2.63000E+06  43833.      730.56      30.440     8.33397E-02
         TOTAL TIME 4.21664E+07 7.02774E+05  11713.      488.04      1.3362    
1
1
                            STRESS PERIOD NO.   18, LENGTH =   2630000.    
                            -----------------------------------------------

                              NUMBER OF TIME STEPS =    30

                               MULTIPLIER FOR DELT =     1.000

                            INITIAL TIME STEP SIZE =   87666.66    

 REUSING NON-PARAMETER GHB CELLS FROM LAST STRESS PERIOD

      2 GHB CELLS

 REUSING STREAM SEGMENT DATA FROM LAST STRESS PERIOD



            AREAL INFILTRATION RATE
 READING ON UNIT   19 WITH FORMAT: (FREE)              

            1           2           3           4           5           6           7           8           9          10
 ........................................................................................................................
   1   1.0000E-10  2.0000E-10   0.000       0.000       0.000       0.000       0.000       0.000       0.000       0.000    
   2   2.0000E-10  1.0000E-10  2.0000E-10   0.000       0.000      8.0000E-10  8.0000E-10  5.0000E-10   0.000       0.000    
   3    0.000      5.0000E-10  1.0000E-10  1.0000E-10  8.0000E-10  8.0000E-10  5.0000E-10  5.0000E-10   0.000       0.000    
   4   8.0000E-10  5.0000E-10  1.0000E-10  1.0000E-10  1.0000E-10  1.0000E-10  1.0000E-10  1.0000E-10  2.0000E-10   0.000    
   5   8.0000E-10  5.0000E-10  1.0000E-10  1.0000E-10  1.0000E-10  1.0000E-10  1.0000E-10  1.0000E-10  1.0000E-10  1.0000E-10
   6   8.0000E-10  5.0000E-10  5.0000E-10  2.0000E-10  2.0000E-10  1.0000E-10  1.0000E-10  1.0000E-10  1.0000E-10  5.0000E-10
   7   8.0000E-10  5.0000E-10  5.0000E-10  2.0000E-10  2.0000E-10  1.0000E-10  1.0000E-10  2.0000E-10  2.0000E-10   0.000    
   8    0.000      5.0000E-10  5.0000E-10  2.0000E-10  2.0000E-10  1.0000E-10  1.0000E-10  2.0000E-10  5.0000E-10   0.000    
   9    0.000      5.0000E-10  5.0000E-10  2.0000E-10  2.0000E-10  1.0000E-10  1.0000E-10  2.0000E-10  5.0000E-10   0.000    
  10    0.000      5.0000E-10  5.0000E-10  2.0000E-10  2.0000E-10  1.0000E-10  1.0000E-10  2.0000E-10  5.0000E-10  8.0000E-10
  11    0.000      1.0000E-10  1.0000E-10  1.0000E-10  1.0000E-10  1.0000E-10  1.0000E-10  2.0000E-10  5.0000E-10   0.000    
  12   1.0000E-10  1.0000E-10  1.0000E-10  1.0000E-10  1.0000E-10  1.0000E-10  1.0000E-10  1.0000E-10  2.0000E-10   0.000    
  13   1.0000E-10  1.0000E-10  2.0000E-10  2.0000E-10  2.0000E-10  2.0000E-10  2.0000E-10  1.0000E-10  1.0000E-10   0.000    
  14    0.000      2.0000E-10  5.0000E-10  5.0000E-10  5.0000E-10  5.0000E-10  5.0000E-10  2.0000E-10  1.0000E-10   0.000    
  15    0.000       0.000      8.0000E-10  8.0000E-10  8.0000E-10  8.0000E-10   0.000       0.000       0.000       0.000    

                  ET RATE =  5.000000E-08

 USING ET EXTINCTION DEPTH FROM PREVIOUS STRESS PERIOD. CURRENT PERIOD IS:      18

 USING EXTINCTION WATER CONTENT FROM PREVIOUS STRESS PERIOD. CURRENT PERIOD IS:      18

 USING AIR ENTRY PRESSURE FROM PREVIOUS STRESS PERIOD. CURRENT PERIOD IS:      18

 USING ROOT PRESSURE HEAD FROM PREVIOUS STRESS PERIOD. CURRENT PERIOD IS:      18

 USING ROOT ACTIVITY FROM PREVIOUS STRESS PERIOD. CURRENT PERIOD IS:      18

 PROCESSING AG STRESS PERIOD DATA

 READING AG STRESS PERIOD DATA

 READING IRRIGATION SEGMENT

 READING IRRIGATION WELL

 READING SUPPLEMENTAL WELL

 END PROCESSING AG STRESS PERIOD DATA OPTIONS
 
 SOLVING FOR HEAD 
                                                   Max.-Head-Change                         Max.-Flux-Residual
  Residual-Control   Outer-Iter.   Inner-Iter.     Column Row Layer    Maximum-Head-Change  Column Row Layer    Maximum-Flux-Residual          L2-NORM 
          0                 1           2             4    7     1       0.5856046601E-02       4    7    1         0.3062347462E+00      0.8805872256E+00
          0                 2           2             4    7     1      -0.2371988482E-01       4    7    1        -0.1273882584E+01      0.3123456035E+01
          0                 3           2             4    7     1       0.2413589699E-01       4    7    1         0.1332430320E+01      0.3273497788E+01
          0                 4           2             4    7     1      -0.9603995802E-03       4    7    1        -0.5449706698E-01      0.1363205970E+00
          0                 5           1             7   13     1       0.1809157744E-04       4   13    1        -0.1070929015E-02      0.2636644787E-02

    ------------------------------------------------
       NWT REQUIRED            5 OUTER ITERATIONS 
       AND A TOTAL OF          9 INNER ITERATIONS.
    ------------------------------------------------

 NO OUTPUT CONTROL FOR STRESS PERIOD   18   TIME STEP    1
 
 SOLVING FOR HEAD 
                                                   Max.-Head-Change                         Max.-Flux-Residual
  Residual-Control   Outer-Iter.   Inner-Iter.     Column Row Layer    Maximum-Head-Change  Column Row Layer    Maximum-Flux-Residual          L2-NORM 
          0                 1           2             4    7     1       0.5818615722E-02       4    7    1         0.3042714341E+00      0.8783205140E+00
          0                 2           2             7   13     1      -0.1793576652E-02       7   13    1        -0.9960979968E-01      0.1326673918E+00
          0                 3           2             7   13     1       0.1221012648E-03       7   13    1         0.6970759608E-02      0.9287354033E-02
          0                 4           1             7   13     1      -0.4856029225E-05       7   13    1        -0.2849604384E-03      0.3799765070E-03

    ------------------------------------------------
       NWT REQUIRED            4 OUTER ITERATIONS 
       AND A TOTAL OF          7 INNER ITERATIONS.
    ------------------------------------------------

 NO OUTPUT CONTROL FOR STRESS PERIOD   18   TIME STEP    2
 
 SOLVING FOR HEAD 
                                                   Max.-Head-Change                         Max.-Flux-Residual
  Residual-Control   Outer-Iter.   Inner-Iter.     Column Row Layer    Maximum-Head-Change  Column Row Layer    Maximum-Flux-Residual          L2-NORM 
          0                 1           2             4    7     1       0.5781607286E-02       4    7    1         0.3023306188E+00      0.8707574358E+00
          0                 2           2             4    7     1      -0.2371835856E-01       4    7    1        -0.1273799491E+01      0.3123901089E+01
          0                 3           2             4    7     1       0.2414135232E-01       4    7    1         0.1332731825E+01      0.3274502312E+01
          0                 4           2             4    7     1      -0.9606166569E-03       4    7    1        -0.5450939881E-01      0.1359259228E+00
          0                 5           1             7   13     1       0.1779747384E-04       7   13    1         0.9947221777E-03      0.2451829165E-02

    ------------------------------------------------
       NWT REQUIRED            5 OUTER ITERATIONS 
       AND A TOTAL OF          9 INNER ITERATIONS.
    ------------------------------------------------

 NO OUTPUT CONTROL FOR STRESS PERIOD   18   TIME STEP    3
 
 SOLVING FOR HEAD 
                                                   Max.-Head-Change                         Max.-Flux-Residual
  Residual-Control   Outer-Iter.   Inner-Iter.     Column Row Layer    Maximum-Head-Change  Column Row Layer    Maximum-Flux-Residual          L2-NORM 
          0                 1           2             4    7     1       0.5744879568E-02       4    7    1         0.3004044740E+00      0.8710002970E+00
          0                 2           2             7   13     1      -0.1797071944E-02       7   13    1        -0.9980055151E-01      0.1322059092E+00
          0                 3           2             7   13     1       0.1223394232E-03       7   13    1         0.6984120184E-02      0.9253429490E-02
          0                 4           1             7   13     1      -0.4865720896E-05       7   13    1        -0.2855194346E-03      0.3784439856E-03

    ------------------------------------------------
       NWT REQUIRED            4 OUTER ITERATIONS 
       AND A TOTAL OF          7 INNER ITERATIONS.
    ------------------------------------------------

 NO OUTPUT CONTROL FOR STRESS PERIOD   18   TIME STEP    4
 
 SOLVING FOR HEAD 
                                                   Max.-Head-Change                         Max.-Flux-Residual
  Residual-Control   Outer-Iter.   Inner-Iter.     Column Row Layer    Maximum-Head-Change  Column Row Layer    Maximum-Flux-Residual          L2-NORM 
          0                 1           2             4    7     1       0.5708567395E-02       4    7    1         0.2985001169E+00      0.8634633833E+00
          0                 2           2             4    7     1      -0.2371194747E-01       4    7    1        -0.1273454110E+01      0.3123631575E+01
          0                 3           2             4    7     1       0.2414159060E-01       4    7    1         0.1332745319E+01      0.3274941987E+01
          0                 4           2             4    7     1      -0.9606261385E-03       4    7    1        -0.5450995073E-01      0.1352866624E+00
          0                 5           1             7   13     1       0.1745625935E-04       7   13    1         0.9757129349E-03      0.2155511253E-02

    ------------------------------------------------
       NWT REQUIRED            5 OUTER ITERATIONS 
       AND A TOTAL OF          9 INNER ITERATIONS.
    ------------------------------------------------

 NO OUTPUT CONTROL FOR STRESS PERIOD   18   TIME STEP    5
 
 SOLVING FOR HEAD 
                                                   Max.-Head-Change                         Max.-Flux-Residual
  Residual-Control   Outer-Iter.   Inner-Iter.     Column Row Layer    Maximum-Head-Change  Column Row Layer    Maximum-Flux-Residual          L2-NORM 
          0                 1           2             4    7     1       0.5672533049E-02       4    7    1         0.2966100726E+00      0.8655356154E+00
          0                 2           2             7   13     1      -0.1800690869E-02       7   13    1        -0.9999841681E-01      0.1318854115E+00
          0                 3           2             7   13     1       0.1225868379E-03       7   13    1         0.6998027395E-02      0.9229678471E-02
          0                 4           1             7   13     1      -0.4875215700E-05       7   13    1        -0.2860687864E-03      0.3773535019E-03

    ------------------------------------------------
       NWT REQUIRED            4 OUTER ITERATIONS 
       AND A TOTAL OF          7 INNER ITERATIONS.
    ------------------------------------------------

 NO OUTPUT CONTROL FOR STRESS PERIOD   18   TIME STEP    6
 
 SOLVING FOR HEAD 
                                                   Max.-Head-Change                         Max.-Flux-Residual
  Residual-Control   Outer-Iter.   Inner-Iter.     Column Row Layer    Maximum-Head-Change  Column Row Layer    Maximum-Flux-Residual          L2-NORM 
          0                 1           2             4    7     1       0.5636772854E-02       4    7    1         0.2947343149E+00      0.8577418108E+00
          0                 2           2             4    7     1      -0.2370514266E-01       4    7    1        -0.1273087543E+01      0.3123253046E+01
          0                 3           2             4    7     1       0.2414130120E-01       4    7    1         0.1332729673E+01      0.3274928283E+01
          0                 4           2             4    7     1      -0.9606146230E-03       4    7    1        -0.5450931079E-01      0.1352721728E+00
          0                 5           1             7   13     1       0.1710837410E-04       7   13    1         0.9563318943E-03      0.2146525502E-02

    ------------------------------------------------
       NWT REQUIRED            5 OUTER ITERATIONS 
       AND A TOTAL OF          9 INNER ITERATIONS.
    ------------------------------------------------

 NO OUTPUT CONTROL FOR STRESS PERIOD   18   TIME STEP    7
 
 SOLVING FOR HEAD 
                                                   Max.-Head-Change                         Max.-Flux-Residual
  Residual-Control   Outer-Iter.   Inner-Iter.     Column Row Layer    Maximum-Head-Change  Column Row Layer    Maximum-Flux-Residual          L2-NORM 
          0                 1           2             4    7     1       0.5601420636E-02       4    7    1         0.2928802410E+00      0.8611421634E+00
          0                 2           2             7   13     1      -0.1804392810E-02       7   13    1        -0.1002011059E+00      0.1316516274E+00
          0                 3           2             7   13     1       0.1228385624E-03       7   13    1         0.7012194915E-02      0.9212052490E-02
          0                 4           1             7   13     1      -0.4886497974E-05       7   13    1        -0.2867222272E-03      0.3766521354E-03

    ------------------------------------------------
       NWT REQUIRED            4 OUTER ITERATIONS 
       AND A TOTAL OF          7 INNER ITERATIONS.
    ------------------------------------------------

 NO OUTPUT CONTROL FOR STRESS PERIOD   18   TIME STEP    8
 
 SOLVING FOR HEAD 
                                                   Max.-Head-Change                         Max.-Flux-Residual
  Residual-Control   Outer-Iter.   Inner-Iter.     Column Row Layer    Maximum-Head-Change  Column Row Layer    Maximum-Flux-Residual          L2-NORM 
          0                 1           2             4    7     1       0.5566468371E-02       4    7    1         0.2910472018E+00      0.8529429996E+00
          0                 2           2             4    7     1      -0.2369848512E-01       4    7    1        -0.1272728963E+01      0.3122839545E+01
          0                 3           2             4    7     1       0.2414102411E-01       4    7    1         0.1332714705E+01      0.3274975708E+01
          0                 4           2             4    7     1      -0.9606035964E-03       4    7    1        -0.5450869860E-01      0.1351582717E+00
          0                 5           1             7   13     1       0.1676274318E-04       7   13    1         0.9370763219E-03      0.2088370919E-02

    ------------------------------------------------
       NWT REQUIRED            5 OUTER ITERATIONS 
       AND A TOTAL OF          9 INNER ITERATIONS.
    ------------------------------------------------

 NO OUTPUT CONTROL FOR STRESS PERIOD   18   TIME STEP    9
 
 SOLVING FOR HEAD 
                                                   Max.-Head-Change                         Max.-Flux-Residual
  Residual-Control   Outer-Iter.   Inner-Iter.     Column Row Layer    Maximum-Head-Change  Column Row Layer    Maximum-Flux-Residual          L2-NORM 
          0                 1           2             4    7     1       0.5531642780E-02       4    7    1         0.2892203162E+00      0.8573244897E+00
          0                 2           2             7   13     1      -0.1808192571E-02       7   13    1        -0.1004094044E+00      0.1314719429E+00
          0                 3           2             7   13     1       0.1230963098E-03       7   13    1         0.7026715981E-02      0.9197620885E-02
          0                 4           1             7   13     1      -0.4895544471E-05       7   13    1        -0.2872458822E-03      0.3758299815E-03

    ------------------------------------------------
       NWT REQUIRED            4 OUTER ITERATIONS 
       AND A TOTAL OF          7 INNER ITERATIONS.
    ------------------------------------------------

 NO OUTPUT CONTROL FOR STRESS PERIOD   18   TIME STEP   10
 
 SOLVING FOR HEAD 
                                                   Max.-Head-Change                         Max.-Flux-Residual
  Residual-Control   Outer-Iter.   Inner-Iter.     Column Row Layer    Maximum-Head-Change  Column Row Layer    Maximum-Flux-Residual          L2-NORM 
          0                 1           2             4    7     1       0.5497349939E-02       4    7    1         0.2874219331E+00      0.8486440971E+00
          0                 2           2             4    7     1      -0.2369194085E-01       4    7    1        -0.1272376449E+01      0.3122397862E+01
          0                 3           2             4    7     1       0.2414075267E-01       4    7    1         0.1332700043E+01      0.3274961452E+01
          0                 4           2             4    7     1      -0.9605927959E-03       4    7    1        -0.5450809890E-01      0.1351443824E+00
          0                 5           1             7   13     1       0.1641722392E-04       7   13    1         0.9178240330E-03      0.2080317098E-02

    ------------------------------------------------
       NWT REQUIRED            5 OUTER ITERATIONS 
       AND A TOTAL OF          9 INNER ITERATIONS.
    ------------------------------------------------

 NO OUTPUT CONTROL FOR STRESS PERIOD   18   TIME STEP   11
 
 SOLVING FOR HEAD 
                                                   Max.-Head-Change                         Max.-Flux-Residual
  Residual-Control   Outer-Iter.   Inner-Iter.     Column Row Layer    Maximum-Head-Change  Column Row Layer    Maximum-Flux-Residual          L2-NORM 
          0                 1           2             4    7     1       0.5463309516E-02       4    7    1         0.2856365891E+00      0.8537664497E+00
          0                 2           2             7   13     1      -0.1812048046E-02       7   13    1        -0.1006209587E+00      0.1313226191E+00
          0                 3           2             7   13     1       0.1233609391E-03       7   13    1         0.7041646929E-02      0.9185660981E-02
          0                 4           1             7   13     1      -0.4907538464E-05       7   13    1        -0.2879418048E-03      0.3753336393E-03

    ------------------------------------------------
       NWT REQUIRED            4 OUTER ITERATIONS 
       AND A TOTAL OF          7 INNER ITERATIONS.
    ------------------------------------------------

 NO OUTPUT CONTROL FOR STRESS PERIOD   18   TIME STEP   12
 
 SOLVING FOR HEAD 
                                                   Max.-Head-Change                         Max.-Flux-Residual
  Residual-Control   Outer-Iter.   Inner-Iter.     Column Row Layer    Maximum-Head-Change  Column Row Layer    Maximum-Flux-Residual          L2-NORM 
          0                 1           2             4    7     1       0.5429519836E-02       4    7    1         0.2838642134E+00      0.8445821284E+00
          0                 2           2             4    7     1      -0.2368551979E-01       4    7    1        -0.1272030570E+01      0.3121933603E+01
          0                 3           2             4    7     1       0.2414048758E-01       4    7    1         0.1332685727E+01      0.3274946442E+01
          0                 4           2             4    7     1      -0.9605822473E-03       4    7    1        -0.5450751334E-01      0.1351303804E+00
          0                 5           1             7   13     1       0.1607459324E-04       7   13    1         0.8987324668E-03      0.2071941447E-02

    ------------------------------------------------
       NWT REQUIRED            5 OUTER ITERATIONS 
       AND A TOTAL OF          9 INNER ITERATIONS.
    ------------------------------------------------

 NO OUTPUT CONTROL FOR STRESS PERIOD   18   TIME STEP   13
 
 SOLVING FOR HEAD 
                                                   Max.-Head-Change                         Max.-Flux-Residual
  Residual-Control   Outer-Iter.   Inner-Iter.     Column Row Layer    Maximum-Head-Change  Column Row Layer    Maximum-Flux-Residual          L2-NORM 
          0                 1           2             4    7     1       0.5396118607E-02       4    7    1         0.2821123092E+00      0.8502780485E+00
          0                 2           2             7   13     1      -0.1815931415E-02       7   13    1        -0.1008341991E+00      0.1311895364E+00
          0                 3           2             7   13     1       0.1236237040E-03       7   13    1         0.7056478108E-02      0.9174688513E-02
          0                 4           1             7   13     1      -0.4917259148E-05       7   13    1        -0.2885051135E-03      0.3748173933E-03

    ------------------------------------------------
       NWT REQUIRED            4 OUTER ITERATIONS 
       AND A TOTAL OF          7 INNER ITERATIONS.
    ------------------------------------------------

 NO OUTPUT CONTROL FOR STRESS PERIOD   18   TIME STEP   14
 
 SOLVING FOR HEAD 
                                                   Max.-Head-Change                         Max.-Flux-Residual
  Residual-Control   Outer-Iter.   Inner-Iter.     Column Row Layer    Maximum-Head-Change  Column Row Layer    Maximum-Flux-Residual          L2-NORM 
          0                 1           2             4    7     1       0.5362961638E-02       4    7    1         0.2803730748E+00      0.8405929124E+00
          0                 2           2             4    7     1      -0.2367922033E-01       4    7    1        -0.1271691231E+01      0.3121451824E+01
          0                 3           2             4    7     1       0.2414022871E-01       4    7    1         0.1332671748E+01      0.3274931161E+01
          0                 4           2             4    7     1      -0.9605719463E-03       4    7    1        -0.5450694160E-01      0.1351167825E+00
          0                 5           1             7   13     1       0.1573287831E-04       7   13    1         0.8797004220E-03      0.2063779602E-02

    ------------------------------------------------
       NWT REQUIRED            5 OUTER ITERATIONS 
       AND A TOTAL OF          9 INNER ITERATIONS.
    ------------------------------------------------

 NO OUTPUT CONTROL FOR STRESS PERIOD   18   TIME STEP   15
 
 SOLVING FOR HEAD 
                                                   Max.-Head-Change                         Max.-Flux-Residual
  Residual-Control   Outer-Iter.   Inner-Iter.     Column Row Layer    Maximum-Head-Change  Column Row Layer    Maximum-Flux-Residual          L2-NORM 
          0                 1           2             4    7     1       0.5330185655E-02       4    7    1         0.2786539762E+00      0.8467425089E+00
          0                 2           2             7   13     1      -0.1819861023E-02       7   13    1        -0.1010501266E+00      0.1310648669E+00
          0                 3           2             7   13     1       0.1238909692E-03       7   13    1         0.7071578344E-02      0.9164543858E-02
          0                 4           1             7   13     1      -0.4927589548E-05       7   13    1        -0.2891087108E-03      0.3739517580E-03

    ------------------------------------------------
       NWT REQUIRED            4 OUTER ITERATIONS 
       AND A TOTAL OF          7 INNER ITERATIONS.
    ------------------------------------------------

 NO OUTPUT CONTROL FOR STRESS PERIOD   18   TIME STEP   16
 
 SOLVING FOR HEAD 
                                                   Max.-Head-Change                         Max.-Flux-Residual
  Residual-Control   Outer-Iter.   Inner-Iter.     Column Row Layer    Maximum-Head-Change  Column Row Layer    Maximum-Flux-Residual          L2-NORM 
          0                 1           2             4    7     1       0.5297776979E-02       4    7    1         0.2769545117E+00      0.8365826612E+00
          0                 2           2             4    7     1      -0.2367305238E-01       4    7    1        -0.1271359030E+01      0.3120957189E+01
          0                 3           2             4    7     1       0.2413997675E-01       4    7    1         0.1332658151E+01      0.3274915432E+01
          0                 4           2             4    7     1      -0.9605619205E-03       4    7    1        -0.5450638543E-01      0.1351031494E+00
          0                 5           1             7   13     1       0.1538185194E-04       7   13    1         0.8601444183E-03      0.2055307277E-02

    ------------------------------------------------
       NWT REQUIRED            5 OUTER ITERATIONS 
       AND A TOTAL OF          9 INNER ITERATIONS.
    ------------------------------------------------

 NO OUTPUT CONTROL FOR STRESS PERIOD   18   TIME STEP   17
 
 SOLVING FOR HEAD 
                                                   Max.-Head-Change                         Max.-Flux-Residual
  Residual-Control   Outer-Iter.   Inner-Iter.     Column Row Layer    Maximum-Head-Change  Column Row Layer    Maximum-Flux-Residual          L2-NORM 
          0                 1           2             4    7     1       0.5265597643E-02       4    7    1         0.2752668597E+00      0.8430917649E+00
          0                 2           2             7   13     1      -0.1823806237E-02       7   13    1        -0.1012670399E+00      0.1309421656E+00
          0                 3           2             7   13     1       0.1241614186E-03       7   13    1         0.7086860973E-02      0.9154901213E-02
          0                 4           1             7   13     1      -0.4948203605E-05       7   13    1        -0.2903109621E-03      0.3742759682E-03

    ------------------------------------------------
       NWT REQUIRED            4 OUTER ITERATIONS 
       AND A TOTAL OF          7 INNER ITERATIONS.
    ------------------------------------------------

 NO OUTPUT CONTROL FOR STRESS PERIOD   18   TIME STEP   18
 
 SOLVING FOR HEAD 
                                                   Max.-Head-Change                         Max.-Flux-Residual
  Residual-Control   Outer-Iter.   Inner-Iter.     Column Row Layer    Maximum-Head-Change  Column Row Layer    Maximum-Flux-Residual          L2-NORM 
          0                 1           2             4    7     1       0.5233648443E-02       4    7    1         0.2735909786E+00      0.8324955536E+00
          0                 2           2             4    7     1      -0.2366698726E-01       4    7    1        -0.1271032331E+01      0.3120452576E+01
          0                 3           2             4    7     1       0.2413973189E-01       4    7    1         0.1332644938E+01      0.3274899896E+01
          0                 4           2             4    7     1      -0.9605521767E-03       4    7    1        -0.5450584502E-01      0.1350902243E+00
          0                 5           1             7   13     1       0.1505951821E-04       7   13    1         0.8421876423E-03      0.2047766625E-02

    ------------------------------------------------
       NWT REQUIRED            5 OUTER ITERATIONS 
       AND A TOTAL OF          9 INNER ITERATIONS.
    ------------------------------------------------

 NO OUTPUT CONTROL FOR STRESS PERIOD   18   TIME STEP   19
 
 SOLVING FOR HEAD 
                                                   Max.-Head-Change                         Max.-Flux-Residual
  Residual-Control   Outer-Iter.   Inner-Iter.     Column Row Layer    Maximum-Head-Change  Column Row Layer    Maximum-Flux-Residual          L2-NORM 
          0                 1           2             4    7     1       0.5202068686E-02       4    7    1         0.2719345019E+00      0.8393141160E+00
          0                 2           2             7   13     1      -0.1827751073E-02       7   13    1        -0.1014840241E+00      0.1308189448E+00
          0                 3           2             7   13     1       0.1244284762E-03       7   13    1         0.7101918639E-02      0.9144597903E-02
          0                 4           1             7   13     1      -0.4949280048E-05       7   13    1        -0.2903622935E-03      0.3729298165E-03

    ------------------------------------------------
       NWT REQUIRED            4 OUTER ITERATIONS 
       AND A TOTAL OF          7 INNER ITERATIONS.
    ------------------------------------------------

 NO OUTPUT CONTROL FOR STRESS PERIOD   18   TIME STEP   20
 
 SOLVING FOR HEAD 
                                                   Max.-Head-Change                         Max.-Flux-Residual
  Residual-Control   Outer-Iter.   Inner-Iter.     Column Row Layer    Maximum-Head-Change  Column Row Layer    Maximum-Flux-Residual          L2-NORM 
          0                 1           2             4    7     1       0.5170707627E-02       4    7    1         0.2702897081E+00      0.8283199666E+00
          0                 2           2             4    7     1      -0.2366103112E-01       4    7    1        -0.1270711502E+01      0.3119941123E+01
          0                 3           2             4    7     1       0.2413948807E-01       4    7    1         0.1332631779E+01      0.3274883628E+01
          0                 4           2             4    7     1      -0.9605424747E-03       4    7    1        -0.5450530679E-01      0.1350775294E+00
          0                 5           1             7   13     1       0.1472655879E-04       7   13    1         0.8236365354E-03      0.2040319080E-02

    ------------------------------------------------
       NWT REQUIRED            5 OUTER ITERATIONS 
       AND A TOTAL OF          9 INNER ITERATIONS.
    ------------------------------------------------

 NO OUTPUT CONTROL FOR STRESS PERIOD   18   TIME STEP   21
 
 SOLVING FOR HEAD 
                                                   Max.-Head-Change                         Max.-Flux-Residual
  Residual-Control   Outer-Iter.   Inner-Iter.     Column Row Layer    Maximum-Head-Change  Column Row Layer    Maximum-Flux-Residual          L2-NORM 
          0                 1           2             4    7     1       0.5139705474E-02       4    7    1         0.2686637260E+00      0.8353933192E+00
          0                 2           2             7   13     1      -0.1831693154E-02       7   13    1        -0.1017009258E+00      0.1306934269E+00
          0                 3           2             7   13     1       0.1246834557E-03       7   13    1         0.7116298262E-02      0.9134289043E-02
          0                 4           1             7   13     1      -0.4958672158E-05       7   13    1        -0.2909011905E-03      0.3728036245E-03

    ------------------------------------------------
       NWT REQUIRED            4 OUTER ITERATIONS 
       AND A TOTAL OF          7 INNER ITERATIONS.
    ------------------------------------------------

 NO OUTPUT CONTROL FOR STRESS PERIOD   18   TIME STEP   22
 
 SOLVING FOR HEAD 
                                                   Max.-Head-Change                         Max.-Flux-Residual
  Residual-Control   Outer-Iter.   Inner-Iter.     Column Row Layer    Maximum-Head-Change  Column Row Layer    Maximum-Flux-Residual          L2-NORM 
          0                 1           2             4    7     1       0.5109053680E-02       4    7    1         0.2670562323E+00      0.8240258070E+00
          0                 2           2             4    7     1      -0.2365520248E-01       4    7    1        -0.1270397571E+01      0.3119425597E+01
          0                 3           2             4    7     1       0.2413925519E-01       4    7    1         0.1332619221E+01      0.3274867956E+01
          0                 4           2             4    7     1      -0.9605332082E-03       4    7    1        -0.5450479317E-01      0.1350647671E+00
          0                 5           1             7   13     1       0.1439755697E-04       7   13    1         0.8053080735E-03      0.2032290658E-02

    ------------------------------------------------
       NWT REQUIRED            5 OUTER ITERATIONS 
       AND A TOTAL OF          9 INNER ITERATIONS.
    ------------------------------------------------

 NO OUTPUT CONTROL FOR STRESS PERIOD   18   TIME STEP   23
 
 SOLVING FOR HEAD 
                                                   Max.-Head-Change                         Max.-Flux-Residual
  Residual-Control   Outer-Iter.   Inner-Iter.     Column Row Layer    Maximum-Head-Change  Column Row Layer    Maximum-Flux-Residual          L2-NORM 
          0                 1           2             4    7     1       0.5078612663E-02       4    7    1         0.2654596729E+00      0.8313436940E+00
          0                 2           2             7   13     1      -0.1835648332E-02       7   13    1        -0.1019186288E+00      0.1305668564E+00
          0                 3           2             7   13     1       0.1249667777E-03       7   13    1         0.7132413319E-02      0.9125103034E-02
          0                 4           1             7   13     1      -0.4970085217E-05       7   13    1        -0.2915757909E-03      0.3723808246E-03

    ------------------------------------------------
       NWT REQUIRED            4 OUTER ITERATIONS 
       AND A TOTAL OF          7 INNER ITERATIONS.
    ------------------------------------------------

 NO OUTPUT CONTROL FOR STRESS PERIOD   18   TIME STEP   24
 
 SOLVING FOR HEAD 
                                                   Max.-Head-Change                         Max.-Flux-Residual
  Residual-Control   Outer-Iter.   Inner-Iter.     Column Row Layer    Maximum-Head-Change  Column Row Layer    Maximum-Flux-Residual          L2-NORM 
          0                 1           2             4    7     1       0.5048513565E-02       4    7    1         0.2638812734E+00      0.8196444677E+00
          0                 2           2             4    7     1      -0.2364947784E-01       4    7    1        -0.1270089253E+01      0.3118907663E+01
          0                 3           2             4    7     1       0.2413902518E-01       4    7    1         0.1332606819E+01      0.3274852060E+01
          0                 4           2             4    7     1      -0.9605240551E-03       4    7    1        -0.5450428588E-01      0.1350529354E+00
          0                 5           1             7   13     1       0.1405958991E-04       7   13    1         0.7864788147E-03      0.2025383062E-02

    ------------------------------------------------
       NWT REQUIRED            5 OUTER ITERATIONS 
       AND A TOTAL OF          9 INNER ITERATIONS.
    ------------------------------------------------

 NO OUTPUT CONTROL FOR STRESS PERIOD   18   TIME STEP   25
 
 SOLVING FOR HEAD 
                                                   Max.-Head-Change                         Max.-Flux-Residual
  Residual-Control   Outer-Iter.   Inner-Iter.     Column Row Layer    Maximum-Head-Change  Column Row Layer    Maximum-Flux-Residual          L2-NORM 
          0                 1           2             4    7     1       0.5018620199E-02       4    7    1         0.2623133707E+00      0.8271728043E+00
          0                 2           2             7   13     1      -0.1839572160E-02       7   13    1        -0.1021346657E+00      0.1304372247E+00
          0                 3           2             7   13     1       0.1252337151E-03       7   13    1         0.7147519286E-02      0.9115374828E-02
          0                 4           1             7   13     1      -0.4979280459E-05       7   13    1        -0.2921086075E-03      0.3717749769E-03

    ------------------------------------------------
       NWT REQUIRED            4 OUTER ITERATIONS 
       AND A TOTAL OF          7 INNER ITERATIONS.
    ------------------------------------------------

 NO OUTPUT CONTROL FOR STRESS PERIOD   18   TIME STEP   26
 
 SOLVING FOR HEAD 
                                                   Max.-Head-Change                         Max.-Flux-Residual
  Residual-Control   Outer-Iter.   Inner-Iter.     Column Row Layer    Maximum-Head-Change  Column Row Layer    Maximum-Flux-Residual          L2-NORM 
          0                 1           2             4    7     1       0.4989064173E-02       4    7    1         0.2607633663E+00      0.8151773822E+00
          0                 2           2             4    7     1      -0.2364385718E-01       4    7    1        -0.1269786522E+01      0.3118389922E+01
          0                 3           2             4    7     1       0.2413880017E-01       4    7    1         0.1332594688E+01      0.3274850433E+01
          0                 4           2             4    7     1      -0.9605151019E-03       4    7    1        -0.5450378970E-01      0.1350148997E+00
          0                 5           1             7   13     1       0.1375148158E-04       7   13    1         0.7679982255E-03      0.2003388675E-02

    ------------------------------------------------
       NWT REQUIRED            5 OUTER ITERATIONS 
       AND A TOTAL OF          9 INNER ITERATIONS.
    ------------------------------------------------

 NO OUTPUT CONTROL FOR STRESS PERIOD   18   TIME STEP   27
 
 SOLVING FOR HEAD 
                                                   Max.-Head-Change                         Max.-Flux-Residual
  Residual-Control   Outer-Iter.   Inner-Iter.     Column Row Layer    Maximum-Head-Change  Column Row Layer    Maximum-Flux-Residual          L2-NORM 
          0                 1           2             4    7     1       0.4959707360E-02       4    7    1         0.2592236212E+00      0.8229040971E+00
          0                 2           2             7   13     1      -0.1843474213E-02       7   13    1        -0.1023495607E+00      0.1303057812E+00
          0                 3           2             7   13     1       0.1254985757E-03       7   13    1         0.7162517200E-02      0.9104715829E-02
          0                 4           1             7   13     1      -0.4991474774E-05       7   13    1        -0.2928182325E-03      0.3710167185E-03

    ------------------------------------------------
       NWT REQUIRED            4 OUTER ITERATIONS 
       AND A TOTAL OF          7 INNER ITERATIONS.
    ------------------------------------------------

 NO OUTPUT CONTROL FOR STRESS PERIOD   18   TIME STEP   28
 
 SOLVING FOR HEAD 
                                                   Max.-Head-Change                         Max.-Flux-Residual
  Residual-Control   Outer-Iter.   Inner-Iter.     Column Row Layer    Maximum-Head-Change  Column Row Layer    Maximum-Flux-Residual          L2-NORM 
          0                 1           2             4    7     1       0.4930681486E-02       4    7    1         0.2577014364E+00      0.8106296701E+00
          0                 2           2             4    7     1      -0.2363834037E-01       4    7    1        -0.1269489388E+01      0.3117872959E+01
          0                 3           2             4    7     1       0.2413858233E-01       4    7    1         0.1332582949E+01      0.3274835433E+01
          0                 4           2             4    7     1      -0.9605064337E-03       4    7    1        -0.5450330957E-01      0.1350043361E+00
          0                 5           1             7   13     1       0.1343376110E-04       7   13    1         0.7502977032E-03      0.1997561213E-02

    ------------------------------------------------
       NWT REQUIRED            5 OUTER ITERATIONS 
       AND A TOTAL OF          9 INNER ITERATIONS.
    ------------------------------------------------

 NO OUTPUT CONTROL FOR STRESS PERIOD   18   TIME STEP   29
 
 SOLVING FOR HEAD 
                                                   Max.-Head-Change                         Max.-Flux-Residual
  Residual-Control   Outer-Iter.   Inner-Iter.     Column Row Layer    Maximum-Head-Change  Column Row Layer    Maximum-Flux-Residual          L2-NORM 
          0                 1           2             4    7     1       0.4901846646E-02       4    7    1         0.2561891792E+00      0.8185488654E+00
          0                 2           2             7   13     1      -0.1847349744E-02       7   13    1        -0.1025630216E+00      0.1301725213E+00
          0                 3           2             7   13     1       0.1257623544E-03       7   13    1         0.7177451377E-02      0.9095179297E-02
          0                 4           1             7   13     1      -0.5001652975E-05       7   13    1        -0.2934111847E-03      0.3710914533E-03

    ------------------------------------------------
       NWT REQUIRED            4 OUTER ITERATIONS 
       AND A TOTAL OF          7 INNER ITERATIONS.
    ------------------------------------------------

 NO OUTPUT CONTROL FOR STRESS PERIOD   18   TIME STEP   30



 STREAM LISTING     PERIOD     18   STEP       30

 LAYER ROW COL. STREAM  RCH.  FLOW INTO     FLOW TO   FLOW OUT OF   OVRLND.     DIRECT     STREAM       STREAM     STREAM     STREAM   STREAMBED  STREAMBED
                SEG.NO.  NO.  STRM. RCH.    AQUIFER    STRM. RCH.    RUNOFF     PRECIP       ET          HEAD       DEPTH      WIDTH   CONDCTNC.   GRADIENT

   1    1    1     1     1    2.3625E+01  2.3872E-01   2.3387E+01  0.000E+00  0.000E+00  0.000E+00  1.09421E+03  1.157E+00  1.276E+01  5.742E-02  1.386E+00
   1    2    2     1     2    2.3387E+01  3.6909E-01   2.3018E+01  0.000E+00  0.000E+00  0.000E+00  1.08921E+03  1.153E+00  1.270E+01  8.888E-02  1.384E+00
   1    3    3     1     3    2.3018E+01  3.1418E-01   2.2703E+01  0.000E+00  0.000E+00  0.000E+00  1.08357E+03  1.147E+00  1.263E+01  7.575E-02  1.382E+00
   1    3    4     1     4    2.2703E+01  2.8882E-01   2.2415E+01  0.000E+00  0.000E+00  0.000E+00  1.07855E+03  1.143E+00  1.256E+01  6.972E-02  1.381E+00
   1    4    5     2     1    2.0415E+01  3.1702E-01   2.0098E+01  0.000E+00  0.000E+00  0.000E+00  1.07300E+03  1.064E+00  1.200E+01  7.800E-02  1.355E+00
   1    5    6     2     2    2.0098E+01  2.4333E-01   1.9854E+01  0.000E+00  0.000E+00  0.000E+00  1.06756E+03  1.055E+00  1.200E+01  6.000E-02  1.352E+00
   1    6    6     2     3    1.9854E+01  2.4286E-01   1.9611E+01  0.000E+00  0.000E+00  0.000E+00  1.06284E+03  1.048E+00  1.200E+01  6.000E-02  1.349E+00
   1    7    6     2     4    1.9611E+01  2.4240E-01   1.9369E+01  0.000E+00  0.000E+00  0.000E+00  1.05812E+03  1.040E+00  1.200E+01  6.000E-02  1.347E+00
   1    8    6     2     5    1.9369E+01  2.4193E-01   1.9127E+01  0.000E+00  0.000E+00  0.000E+00  1.05339E+03  1.032E+00  1.200E+01  6.000E-02  1.344E+00
   1    3    5     3     1    2.0000E+00  2.8252E-01   1.7175E+00  0.000E+00  0.000E+00  0.000E+00  1.07555E+03  1.909E+00  9.636E+00  7.227E-02  1.955E+00
   1    3    6     3     2    1.7175E+00  2.4905E-01   1.4684E+00  0.000E+00  0.000E+00  0.000E+00  1.07264E+03  1.727E+00  8.909E+00  6.682E-02  1.864E+00
   1    3    7     3     3    1.4684E+00  1.9718E-01   1.2712E+00  0.000E+00  0.000E+00  0.000E+00  1.06987E+03  1.555E+00  8.218E+00  5.547E-02  1.777E+00
   1    4    8     3     4    1.2712E+00  2.2567E-01   1.0456E+00  0.000E+00  0.000E+00  0.000E+00  1.06682E+03  1.364E+00  7.455E+00  6.709E-02  1.682E+00
   1    5    8     3     5    1.0456E+00  1.5790E-01   8.8768E-01  0.000E+00  0.000E+00  0.000E+00  1.06362E+03  1.164E+00  6.655E+00  4.991E-02  1.582E+00
   1    6    8     3     6    8.8768E-01  5.5980E-02   8.3170E-01  0.000E+00  0.000E+00  0.000E+00  1.06158E+03  1.036E+00  6.145E+00  1.844E-02  1.518E+00
   1    5   10     4     1    1.0000E+01  9.0919E-02   9.9091E+00  0.000E+00  0.000E+00  0.000E+00  1.07836E+03  6.368E-01  1.000E+01  2.500E-02  1.212E+00
   1    5    9     4     2    9.9091E+00  1.8158E-01   9.7275E+00  0.000E+00  0.000E+00  0.000E+00  1.07154E+03  6.315E-01  1.000E+01  5.000E-02  1.211E+00
   1    6    8     4     3    9.7275E+00  1.2689E-01   9.6006E+00  0.000E+00  0.000E+00  0.000E+00  1.06381E+03  6.256E-01  1.000E+01  3.500E-02  1.209E+00
   1    6    8     5     1    1.0432E+01  2.2686E-01   1.0205E+01  0.000E+00  0.000E+00  0.000E+00  1.05868E+03  6.790E-01  1.542E+01  6.166E-02  1.226E+00
   1    7    7     5     2    1.0205E+01  2.7894E-01   9.9265E+00  0.000E+00  0.000E+00  0.000E+00  1.05417E+03  6.732E-01  1.519E+01  7.594E-02  1.224E+00
   1    8    7     5     3    9.9265E+00  1.9221E-01   9.7343E+00  0.000E+00  0.000E+00  0.000E+00  1.04992E+03  6.676E-01  1.497E+01  5.241E-02  1.223E+00
   1    8    6     5     4    9.7343E+00  1.3577E-01   9.5985E+00  0.000E+00  0.000E+00  0.000E+00  1.04691E+03  6.637E-01  1.482E+01  3.706E-02  1.221E+00
   1    9    6     6     1    2.8726E+01  2.5942E-01   2.8466E+01  0.000E+00  0.000E+00  0.000E+00  1.04405E+03  1.324E+00  1.200E+01  6.000E-02  1.441E+00
   1   10    7     6     2    2.8466E+01  2.5898E-01   2.8207E+01  0.000E+00  0.000E+00  0.000E+00  1.03950E+03  1.316E+00  1.200E+01  6.000E-02  1.439E+00
   1   11    7     6     3    2.8207E+01  2.5855E-01   2.7949E+01  0.000E+00  0.000E+00  0.000E+00  1.03495E+03  1.309E+00  1.200E+01  6.000E-02  1.436E+00
   1   12    7     6     4    2.7949E+01  2.5811E-01   2.7690E+01  0.000E+00  0.000E+00  0.000E+00  1.03039E+03  1.302E+00  1.200E+01  6.000E-02  1.434E+00
   1   13    7     6     5    2.7690E+01  1.0574E-02   2.7680E+01  0.000E+00  0.000E+00  0.000E+00  1.02721E+03  1.298E+00  1.200E+01  2.400E-02  1.469E-01
   1   14    9     7     1    1.5000E+02  1.3719E+00   1.4863E+02  0.000E+00  0.000E+00  0.000E+00  1.03987E+03  2.288E+00  5.529E+01  5.593E-01  8.176E-01
   1   13    8     7     2    1.4863E+02  1.9366E+00   1.4669E+02  0.000E+00  0.000E+00  0.000E+00  1.03478E+03  2.279E+00  5.525E+01  6.148E-01  1.050E+00
   1   13    7     7     3    1.4669E+02  1.6316E+00   1.4506E+02  0.000E+00  0.000E+00  0.000E+00  1.02969E+03  2.269E+00  5.521E+01  5.584E-01  9.740E-01
   1   13    6     8     1    1.7274E+02  1.0862E+00   1.7165E+02  0.000E+00  0.000E+00  0.000E+00  1.02484E+03  2.966E+00  4.301E+01  4.383E-01  8.260E-01
   1   13    5     8     2    1.7165E+02  3.1724E-01   1.7134E+02  0.000E+00  0.000E+00  0.000E+00  1.01859E+03  2.962E+00  4.295E+01  4.377E-01  2.416E-01
   1   13    4     8     3    1.7134E+02 -1.8852E+00   1.7322E+02  0.000E+00  0.000E+00  0.000E+00  1.01234E+03  2.967E+00  4.302E+01  4.384E+00 -1.433E-01
   1   13    3     8     4    1.7322E+02 -3.3236E+00   1.7655E+02  0.000E+00  0.000E+00  0.000E+00  1.00611E+03  2.984E+00  4.326E+01  4.409E+00 -2.513E-01
   1   13    2     8     5    1.7655E+02 -2.3934E+00   1.7894E+02  0.000E+00  0.000E+00  0.000E+00  9.99877E+02  3.002E+00  4.353E+01  4.436E+00 -1.799E-01
   1   13    1     8     6    1.7894E+02 -1.9069E+00   1.8085E+02  0.000E+00  0.000E+00  0.000E+00  9.94891E+02  3.015E+00  4.372E+01  2.673E+00 -2.378E-01
   1    8    6     9     1    8.8528E-07  0.0000E+00   8.8528E-07  0.000E+00  0.000E+00  0.000E+00  1.07875E+03  1.118E-04  4.000E+00  0.000E+00  1.000E+00
   1    8    5     9     2    8.8528E-07  0.0000E+00   8.8528E-07  0.000E+00  0.000E+00  0.000E+00  1.07825E+03  1.118E-04  4.000E+00  0.000E+00  1.000E+00





UNSATURATED ZONE PACKAGE VOLUMETRIC BUDGET FOR  TIME STEP    30 STRESS PERIOD   18
  ------------------------------------------------------------------------------



     CUMULATIVE VOLUMES      L**3       RATES FOR THIS TIME STEP      L**3/T
     ------------------                 ------------------------

           IN:                                      IN:
           ---                                      ---
        INFILTRATION =   558931574.8363          INFILTRATION =           0.8475

          OUT:                                     OUT:
          ----                                     ----
              UZF ET =   471026352.4725                UZF ET =           8.3175
        UZF RECHARGE =       73224.0000          UZF RECHARGE =       0.0000E+00

            IN - OUT =    87831998.3638              IN - OUT =          -7.4700

          STORAGE:                                 STORAGE:
          --------                                 --------
      STORAGE CHANGE =    87832171.6043        STORAGE CHANGE =          -7.4699

 PERCENT DISCREPANCY IS DIFFERENCE BETWEEN IN-OUT MINUS CHANGE IN STORAGE
 DIVIDED BY THE AVERAGE OF IN AND OUT TIMES 100

 PERCENT DISCREPANCY =          -0.00     PERCENT DISCREPANCY =          -0.00






1
  VOLUMETRIC BUDGET FOR AGRICULTURAL FIELDS AT  END OF TIME STEP   30, STRESS PERIOD  18
  ------------------------------------------------------------------------------

     CUMULATIVE VOLUMES      L**3       RATES FOR THIS TIME STEP      L**3/T
     ------------------                 ------------------------

           IN:                                      IN:
           ---                                      ---
               AG WELLS  =   300639168.0000                 AG WELLS  =       2.2132E-07
      DIVERSION SEGMENTS =   220325728.0000        DIVERSION SEGMENTS =       8.8528E-07
           GW IRRIGATION =           0.0000             GW IRRIGATION =           0.0000
           SW IRRIGATION =           0.0000             SW IRRIGATION =           0.0000
        SYSTEM LOSSES GW =           0.0000          SYSTEM LOSSES GW =           0.0000
        SYSTEM LOSSES SW =           0.0000          SYSTEM LOSSES SW =           0.0000

                TOTAL IN =   520964896.0000                  TOTAL IN =       1.1066E-06

          OUT:                                     OUT:
          ----                                     ----
               AG WELLS  =           0.0000                 AG WELLS  =           0.0000
      DIVERSION SEGMENTS =           0.0000        DIVERSION SEGMENTS =           0.0000
           GW IRRIGATION =   300639168.0000             GW IRRIGATION =       2.2132E-07
           SW IRRIGATION =   220330240.0000             SW IRRIGATION =       8.8530E-07
        SYSTEM LOSSES GW =           0.0000          SYSTEM LOSSES GW =           0.0000
        SYSTEM LOSSES SW =           0.0000          SYSTEM LOSSES SW =           0.0000

               TOTAL OUT =   520969408.0000                 TOTAL OUT =       1.1066E-06

                IN - OUT =       -4512.0000                  IN - OUT =      -1.7621E-11

     PERCENT DISCREPANCY =          -0.00         PERCENT DISCREPANCY =          -0.00



1
  VOLUMETRIC BUDGET FOR ENTIRE MODEL AT END OF TIME STEP   30, STRESS PERIOD  18
  ------------------------------------------------------------------------------

     CUMULATIVE VOLUMES      L**3       RATES FOR THIS TIME STEP      L**3/T
     ------------------                 ------------------------

           IN:                                      IN:
           ---                                      ---
             STORAGE     =   472764256.0000               STORAGE     =           1.5038
       CONSTANT HEAD     =           0.0000         CONSTANT HEAD     =           0.0000
     HEAD DEP BOUNDS     =    12900923.0000       HEAD DEP BOUNDS     =           0.2882
      STREAM LEAKAGE     =   528369824.0000        STREAM LEAKAGE     =          12.2890
        UZF RECHARGE     =       73223.9531          UZF RECHARGE     =           0.0000
               GW ET     =           0.0000                 GW ET     =           0.0000
     SURFACE LEAKAGE     =           0.0000       SURFACE LEAKAGE     =           0.0000
           AG WELLS      =           0.0000             AG WELLS      =           0.0000

                TOTAL IN =  1014108224.0000                  TOTAL IN =          14.0810

          OUT:                                     OUT:
          ----                                     ----
             STORAGE     =   242864288.0000               STORAGE     =           4.2830
       CONSTANT HEAD     =           0.0000         CONSTANT HEAD     =           0.0000
     HEAD DEP BOUNDS     =    12915762.0000       HEAD DEP BOUNDS     =           0.2889
      STREAM LEAKAGE     =   457698336.0000        STREAM LEAKAGE     =           9.5090
        UZF RECHARGE     =           0.0000          UZF RECHARGE     =           0.0000
               GW ET     =           0.0000                 GW ET     =           0.0000
     SURFACE LEAKAGE     =           0.0000       SURFACE LEAKAGE     =           0.0000
           AG WELLS      =   300639168.0000             AG WELLS      =       2.2132E-07

               TOTAL OUT =  1014117568.0000                 TOTAL OUT =          14.0810

                IN - OUT =       -9344.0000                  IN - OUT =       1.7166E-05

     PERCENT DISCREPANCY =          -0.00         PERCENT DISCREPANCY =           0.00






         TIME SUMMARY AT END OF TIME STEP   30 IN STRESS PERIOD   18
                    SECONDS     MINUTES      HOURS       DAYS        YEARS
                    -----------------------------------------------------------
   TIME STEP LENGTH  87667.      1461.1      24.352      1.0147     2.77799E-03
 STRESS PERIOD TIME 2.63000E+06  43833.      730.56      30.440     8.33397E-02
         TOTAL TIME 4.47965E+07 7.46608E+05  12443.      518.48      1.4195    
1
1
                            STRESS PERIOD NO.   19, LENGTH =   2630000.    
                            -----------------------------------------------

                              NUMBER OF TIME STEPS =    30

                               MULTIPLIER FOR DELT =     1.000

                            INITIAL TIME STEP SIZE =   87666.66    

 REUSING NON-PARAMETER GHB CELLS FROM LAST STRESS PERIOD

      2 GHB CELLS

 REUSING STREAM SEGMENT DATA FROM LAST STRESS PERIOD



            AREAL INFILTRATION RATE
 READING ON UNIT   19 WITH FORMAT: (FREE)              

            1           2           3           4           5           6           7           8           9          10
 ........................................................................................................................
   1   1.0000E-10  2.0000E-10   0.000       0.000       0.000       0.000       0.000       0.000       0.000       0.000    
   2   2.0000E-10  1.0000E-10  2.0000E-10   0.000       0.000      8.0000E-10  8.0000E-10  5.0000E-10   0.000       0.000    
   3    0.000      5.0000E-10  1.0000E-10  1.0000E-10  8.0000E-10  8.0000E-10  5.0000E-10  5.0000E-10   0.000       0.000    
   4   8.0000E-10  5.0000E-10  1.0000E-10  1.0000E-10  1.0000E-10  1.0000E-10  1.0000E-10  1.0000E-10  2.0000E-10   0.000    
   5   8.0000E-10  5.0000E-10  1.0000E-10  1.0000E-10  1.0000E-10  1.0000E-10  1.0000E-10  1.0000E-10  1.0000E-10  1.0000E-10
   6   8.0000E-10  5.0000E-10  5.0000E-10  2.0000E-10  2.0000E-10  1.0000E-10  1.0000E-10  1.0000E-10  1.0000E-10  5.0000E-10
   7   8.0000E-10  5.0000E-10  5.0000E-10  2.0000E-10  2.0000E-10  1.0000E-10  1.0000E-10  2.0000E-10  2.0000E-10   0.000    
   8    0.000      5.0000E-10  5.0000E-10  2.0000E-10  2.0000E-10  1.0000E-10  1.0000E-10  2.0000E-10  5.0000E-10   0.000    
   9    0.000      5.0000E-10  5.0000E-10  2.0000E-10  2.0000E-10  1.0000E-10  1.0000E-10  2.0000E-10  5.0000E-10   0.000    
  10    0.000      5.0000E-10  5.0000E-10  2.0000E-10  2.0000E-10  1.0000E-10  1.0000E-10  2.0000E-10  5.0000E-10  8.0000E-10
  11    0.000      1.0000E-10  1.0000E-10  1.0000E-10  1.0000E-10  1.0000E-10  1.0000E-10  2.0000E-10  5.0000E-10   0.000    
  12   1.0000E-10  1.0000E-10  1.0000E-10  1.0000E-10  1.0000E-10  1.0000E-10  1.0000E-10  1.0000E-10  2.0000E-10   0.000    
  13   1.0000E-10  1.0000E-10  2.0000E-10  2.0000E-10  2.0000E-10  2.0000E-10  2.0000E-10  1.0000E-10  1.0000E-10   0.000    
  14    0.000      2.0000E-10  5.0000E-10  5.0000E-10  5.0000E-10  5.0000E-10  5.0000E-10  2.0000E-10  1.0000E-10   0.000    
  15    0.000       0.000      8.0000E-10  8.0000E-10  8.0000E-10  8.0000E-10   0.000       0.000       0.000       0.000    

                  ET RATE =  1.500000E-07

 USING ET EXTINCTION DEPTH FROM PREVIOUS STRESS PERIOD. CURRENT PERIOD IS:      19

 USING EXTINCTION WATER CONTENT FROM PREVIOUS STRESS PERIOD. CURRENT PERIOD IS:      19

 USING AIR ENTRY PRESSURE FROM PREVIOUS STRESS PERIOD. CURRENT PERIOD IS:      19

 USING ROOT PRESSURE HEAD FROM PREVIOUS STRESS PERIOD. CURRENT PERIOD IS:      19

 USING ROOT ACTIVITY FROM PREVIOUS STRESS PERIOD. CURRENT PERIOD IS:      19

 PROCESSING AG STRESS PERIOD DATA

 READING AG STRESS PERIOD DATA

 READING IRRIGATION SEGMENT

 READING IRRIGATION WELL

 READING SUPPLEMENTAL WELL

 END PROCESSING AG STRESS PERIOD DATA OPTIONS
 
 SOLVING FOR HEAD 
                                                   Max.-Head-Change                         Max.-Flux-Residual
  Residual-Control   Outer-Iter.   Inner-Iter.     Column Row Layer    Maximum-Head-Change  Column Row Layer    Maximum-Flux-Residual          L2-NORM 
          0                 1           2             4    7     1       0.4873325376E-02       4    7    1         0.2546940580E+00      0.7837188560E+00
          0                 2           2             4    7     1      -0.8592566252E-01       4    7    1        -0.4614576943E+01      0.1131670809E+02
          0                 3           2             4    7     1       0.5851003823E-02       4    7    1         0.3230130353E+00      0.7931463576E+00
          0                 4           2             4    7     1      -0.2328174785E-03       4    7    1        -0.1321128636E-01      0.3268254312E-01
          0                 5           1             7   13     1      -0.5283302886E-05       7   13    1        -0.3029027705E-03      0.5115139372E-03

    ------------------------------------------------
       NWT REQUIRED            5 OUTER ITERATIONS 
       AND A TOTAL OF          9 INNER ITERATIONS.
    ------------------------------------------------

 OUTPUT CONTROL FOR STRESS PERIOD   19   TIME STEP    1
    PRINT BUDGET
    SAVE BUDGET
 UBDSV1 SAVING "         STORAGE" ON UNIT 102 AT TIME STEP  1, STRESS PERIOD  19
 UBDSV2 SAVING "   CONSTANT HEAD" ON UNIT 102 AT TIME STEP  1, STRESS PERIOD  19
 UBDSV1 SAVING "FLOW RIGHT FACE " ON UNIT 102 AT TIME STEP  1, STRESS PERIOD  19
 UBDSV1 SAVING "FLOW FRONT FACE " ON UNIT 102 AT TIME STEP  1, STRESS PERIOD  19

  HEAD DEP BOUNDS   PERIOD   19   STEP     1
 BOUNDARY      1   LAYER   1   ROW    13   COL     1   RATE   -0.288837    
 BOUNDARY      2   LAYER   1   ROW    14   COL     9   RATE    0.288213    



 STREAM LISTING     PERIOD     19   STEP        1

 LAYER ROW COL. STREAM  RCH.  FLOW INTO     FLOW TO   FLOW OUT OF   OVRLND.     DIRECT     STREAM       STREAM     STREAM     STREAM   STREAMBED  STREAMBED
                SEG.NO.  NO.  STRM. RCH.    AQUIFER    STRM. RCH.    RUNOFF     PRECIP       ET          HEAD       DEPTH      WIDTH   CONDCTNC.   GRADIENT

   1    1    1     1     1    2.1826E+01  2.3002E-01   2.1596E+01  0.000E+00  0.000E+00  0.000E+00  1.09418E+03  1.129E+00  1.238E+01  5.571E-02  1.376E+00
   1    2    2     1     2    2.1596E+01  3.5556E-01   2.1240E+01  0.000E+00  0.000E+00  0.000E+00  1.08918E+03  1.124E+00  1.232E+01  8.622E-02  1.375E+00
   1    3    3     1     3    2.1240E+01  3.0257E-01   2.0938E+01  0.000E+00  0.000E+00  0.000E+00  1.08354E+03  1.119E+00  1.224E+01  7.347E-02  1.373E+00
   1    3    4     1     4    2.0938E+01  2.7808E-01   2.0660E+01  0.000E+00  0.000E+00  0.000E+00  1.07852E+03  1.114E+00  1.218E+01  6.760E-02  1.371E+00
   1    4    5     2     1    1.8660E+01  3.1263E-01   1.8347E+01  0.000E+00  0.000E+00  0.000E+00  1.07294E+03  1.008E+00  1.200E+01  7.800E-02  1.336E+00
   1    5    6     2     2    1.8347E+01  2.3994E-01   1.8107E+01  0.000E+00  0.000E+00  0.000E+00  1.06751E+03  9.990E-01  1.200E+01  6.000E-02  1.333E+00
   1    6    6     2     3    1.8107E+01  2.3947E-01   1.7868E+01  0.000E+00  0.000E+00  0.000E+00  1.06278E+03  9.911E-01  1.200E+01  6.000E-02  1.330E+00
   1    7    6     2     4    1.7868E+01  2.3899E-01   1.7629E+01  0.000E+00  0.000E+00  0.000E+00  1.05806E+03  9.832E-01  1.200E+01  6.000E-02  1.328E+00
   1    8    6     2     5    1.7629E+01  2.3851E-01   1.7390E+01  0.000E+00  0.000E+00  0.000E+00  1.05333E+03  9.752E-01  1.200E+01  6.000E-02  1.325E+00
   1    3    5     3     1    2.0000E+00  2.8252E-01   1.7175E+00  0.000E+00  0.000E+00  0.000E+00  1.07555E+03  1.909E+00  9.636E+00  7.227E-02  1.955E+00
   1    3    6     3     2    1.7175E+00  2.4905E-01   1.4684E+00  0.000E+00  0.000E+00  0.000E+00  1.07264E+03  1.727E+00  8.909E+00  6.682E-02  1.864E+00
   1    3    7     3     3    1.4684E+00  1.9718E-01   1.2712E+00  0.000E+00  0.000E+00  0.000E+00  1.06987E+03  1.555E+00  8.218E+00  5.547E-02  1.777E+00
   1    4    8     3     4    1.2712E+00  2.2567E-01   1.0456E+00  0.000E+00  0.000E+00  0.000E+00  1.06682E+03  1.364E+00  7.455E+00  6.709E-02  1.682E+00
   1    5    8     3     5    1.0456E+00  1.5790E-01   8.8768E-01  0.000E+00  0.000E+00  0.000E+00  1.06362E+03  1.164E+00  6.655E+00  4.991E-02  1.582E+00
   1    6    8     3     6    8.8768E-01  5.5980E-02   8.3170E-01  0.000E+00  0.000E+00  0.000E+00  1.06158E+03  1.036E+00  6.145E+00  1.844E-02  1.518E+00
   1    5   10     4     1    1.0000E+01  9.0919E-02   9.9091E+00  0.000E+00  0.000E+00  0.000E+00  1.07836E+03  6.368E-01  1.000E+01  2.500E-02  1.212E+00
   1    5    9     4     2    9.9091E+00  1.8158E-01   9.7275E+00  0.000E+00  0.000E+00  0.000E+00  1.07154E+03  6.315E-01  1.000E+01  5.000E-02  1.211E+00
   1    6    8     4     3    9.7275E+00  1.2689E-01   9.6006E+00  0.000E+00  0.000E+00  0.000E+00  1.06381E+03  6.256E-01  1.000E+01  3.500E-02  1.209E+00
   1    6    8     5     1    1.0432E+01  2.2686E-01   1.0205E+01  0.000E+00  0.000E+00  0.000E+00  1.05868E+03  6.790E-01  1.542E+01  6.166E-02  1.226E+00
   1    7    7     5     2    1.0205E+01  2.7894E-01   9.9265E+00  0.000E+00  0.000E+00  0.000E+00  1.05417E+03  6.732E-01  1.519E+01  7.594E-02  1.224E+00
   1    8    7     5     3    9.9265E+00  1.9221E-01   9.7343E+00  0.000E+00  0.000E+00  0.000E+00  1.04992E+03  6.676E-01  1.497E+01  5.241E-02  1.223E+00
   1    8    6     5     4    9.7343E+00  1.3577E-01   9.5985E+00  0.000E+00  0.000E+00  0.000E+00  1.04691E+03  6.637E-01  1.482E+01  3.706E-02  1.221E+00
   1    9    6     6     1    9.5985E+00  2.2097E-01   9.3776E+00  0.000E+00  0.000E+00  0.000E+00  1.04341E+03  6.828E-01  1.200E+01  6.000E-02  1.228E+00
   1   10    7     6     2    9.3776E+00  2.2039E-01   9.1572E+00  0.000E+00  0.000E+00  0.000E+00  1.03885E+03  6.732E-01  1.200E+01  6.000E-02  1.224E+00
   1   11    7     6     3    9.1572E+00  2.1981E-01   8.9374E+00  0.000E+00  0.000E+00  0.000E+00  1.03430E+03  6.636E-01  1.200E+01  6.000E-02  1.221E+00
   1   12    7     6     4    8.9374E+00  2.1923E-01   8.7181E+00  0.000E+00  0.000E+00  0.000E+00  1.02974E+03  6.539E-01  1.200E+01  6.000E-02  1.218E+00
   1   13    7     6     5    8.7181E+00 -4.9493E-02   8.7676E+00  0.000E+00  0.000E+00  0.000E+00  1.02656E+03  6.501E-01  1.200E+01  2.400E-01 -6.874E-02
   1   14    9     7     1    1.5000E+02  1.3719E+00   1.4863E+02  0.000E+00  0.000E+00  0.000E+00  1.03987E+03  2.288E+00  5.529E+01  5.593E-01  8.176E-01
   1   13    8     7     2    1.4863E+02  1.9367E+00   1.4669E+02  0.000E+00  0.000E+00  0.000E+00  1.03478E+03  2.279E+00  5.525E+01  6.147E-01  1.050E+00
   1   13    7     7     3    1.4669E+02  1.6323E+00   1.4506E+02  0.000E+00  0.000E+00  0.000E+00  1.02969E+03  2.269E+00  5.521E+01  5.584E-01  9.744E-01
   1   13    6     8     1    1.5383E+02  9.8766E-01   1.5284E+02  0.000E+00  0.000E+00  0.000E+00  1.02472E+03  2.840E+00  4.118E+01  4.197E-01  7.845E-01
   1   13    5     8     2    1.5284E+02  2.5145E-01   1.5259E+02  0.000E+00  0.000E+00  0.000E+00  1.01846E+03  2.836E+00  4.112E+01  4.190E-01  2.000E-01
   1   13    4     8     3    1.5259E+02 -2.3075E+00   1.5490E+02  0.000E+00  0.000E+00  0.000E+00  1.01222E+03  2.843E+00  4.122E+01  4.201E+00 -1.831E-01
   1   13    3     8     4    1.5490E+02 -3.6808E+00   1.5858E+02  0.000E+00  0.000E+00  0.000E+00  1.00599E+03  2.864E+00  4.152E+01  4.231E+00 -2.900E-01
   1   13    2     8     5    1.5858E+02 -2.7778E+00   1.6135E+02  0.000E+00  0.000E+00  0.000E+00  9.99761E+02  2.886E+00  4.184E+01  4.264E+00 -2.172E-01
   1   13    1     8     6    1.6135E+02 -2.1198E+00   1.6347E+02  0.000E+00  0.000E+00  0.000E+00  9.94777E+02  2.902E+00  4.208E+01  2.573E+00 -2.746E-01
   1    8    6     9     1    1.7390E+01  0.0000E+00   1.7390E+01  0.000E+00  0.000E+00  0.000E+00  1.08191E+03  3.158E+00  4.000E+00  0.000E+00  2.053E+00
   1    8    5     9     2    1.7390E+01  0.0000E+00   1.7390E+01  0.000E+00  0.000E+00  0.000E+00  1.08141E+03  3.158E+00  4.000E+00  0.000E+00  2.053E+00



 UBDSV3 SAVING "           GW ET" ON UNIT  61 AT TIME STEP  1, STRESS PERIOD  19
 UBDSV3 SAVING "    UZF RECHARGE" ON UNIT  61 AT TIME STEP  1, STRESS PERIOD  19
 UBDSV3 SAVING " SURFACE LEAKAGE" ON UNIT  61 AT TIME STEP  1, STRESS PERIOD  19
 UBDSV3 SAVING "       HORT+DUNN" ON UNIT  61 AT TIME STEP  1, STRESS PERIOD  19
 UBDSV3 SAVING "  STORAGE CHANGE" ON UNIT  61 AT TIME STEP  1, STRESS PERIOD  19


UNSATURATED ZONE PACKAGE VOLUMETRIC BUDGET FOR  TIME STEP     1 STRESS PERIOD   19
  ------------------------------------------------------------------------------



     CUMULATIVE VOLUMES      L**3       RATES FOR THIS TIME STEP      L**3/T
     ------------------                 ------------------------

           IN:                                      IN:
           ---                                      ---
        INFILTRATION =   562944304.4572          INFILTRATION =          45.7726

          OUT:                                     OUT:
          ----                                     ----
              UZF ET =   473070519.9684                UZF ET =          23.3175
        UZF RECHARGE =       73224.0000          UZF RECHARGE =       0.0000E+00

            IN - OUT =    89800560.4888              IN - OUT =          22.4551

          STORAGE:                                 STORAGE:
          --------                                 --------
      STORAGE CHANGE =    89800733.8199        STORAGE CHANGE =          22.4551

 PERCENT DISCREPANCY IS DIFFERENCE BETWEEN IN-OUT MINUS CHANGE IN STORAGE
 DIVIDED BY THE AVERAGE OF IN AND OUT TIMES 100

 PERCENT DISCREPANCY =          -0.00     PERCENT DISCREPANCY =           0.00






 

            AG WELLS      PERIOD   19   STEP   1
 AG WELL      1   LAYER   1   ROW     6   COL     4   RATE    -4.58911    
 AG WELL      2   LAYER   1   ROW     6   COL     5   RATE    -4.58911    
 AG WELL      3   LAYER   1   ROW     7   COL     4   RATE    -4.58911    
 AG WELL      4   LAYER   1   ROW     7   COL     5   RATE    -4.58911    
 AG WELL      5   LAYER   1   ROW     8   COL     4   RATE    -4.58911    
 AG WELL      6   LAYER   1   ROW     8   COL     5   RATE    -4.58911    
 
 

   DIVERSION SEGMENTS     PERIOD   19   STEP   1
 SEGMENT      9   RATE     17.3901    
 
 

        SW IRRIGATION     PERIOD   19   STEP   1
 SEGMENT      9   ROW     6   COL     4   RATE     2.89841    
 SEGMENT      9   ROW     6   COL     5   RATE     2.89841    
 SEGMENT      9   ROW     7   COL     4   RATE     2.89841    
 SEGMENT      9   ROW     7   COL     5   RATE     2.89841    
 SEGMENT      9   ROW     8   COL     4   RATE     2.89841    
 SEGMENT      9   ROW     8   COL     5   RATE     2.89841    
 
 

        GW IRRIGATION     PERIOD   19   STEP   1
 AG WELL      1   ROW     6   COL     4   RATE     4.58911    
 AG WELL      2   ROW     6   COL     5   RATE     4.58911    
 AG WELL      3   ROW     7   COL     4   RATE     4.58911    
 AG WELL      4   ROW     7   COL     5   RATE     4.58911    
 AG WELL      5   ROW     8   COL     4   RATE     4.58911    
 AG WELL      6   ROW     8   COL     5   RATE     4.58911    
 
1
  VOLUMETRIC BUDGET FOR AGRICULTURAL FIELDS AT  END OF TIME STEP    1, STRESS PERIOD  19
  ------------------------------------------------------------------------------

     CUMULATIVE VOLUMES      L**3       RATES FOR THIS TIME STEP      L**3/T
     ------------------                 ------------------------

           IN:                                      IN:
           ---                                      ---
               AG WELLS  =   303053024.0000                 AG WELLS  =          27.5346
      DIVERSION SEGMENTS =   221850256.0000        DIVERSION SEGMENTS =          17.3901
           GW IRRIGATION =           0.0000             GW IRRIGATION =           0.0000
           SW IRRIGATION =           0.0000             SW IRRIGATION =           0.0000
        SYSTEM LOSSES GW =           0.0000          SYSTEM LOSSES GW =           0.0000
        SYSTEM LOSSES SW =           0.0000          SYSTEM LOSSES SW =           0.0000

                TOTAL IN =   524903296.0000                  TOTAL IN =          44.9247

          OUT:                                     OUT:
          ----                                     ----
               AG WELLS  =           0.0000                 AG WELLS  =           0.0000
      DIVERSION SEGMENTS =           0.0000        DIVERSION SEGMENTS =           0.0000
           GW IRRIGATION =   303053024.0000             GW IRRIGATION =          27.5346
           SW IRRIGATION =   221854800.0000             SW IRRIGATION =          17.3904
        SYSTEM LOSSES GW =           0.0000          SYSTEM LOSSES GW =           0.0000
        SYSTEM LOSSES SW =           0.0000          SYSTEM LOSSES SW =           0.0000

               TOTAL OUT =   524907840.0000                 TOTAL OUT =          44.9251

                IN - OUT =       -4544.0000                  IN - OUT =      -3.4714E-04

     PERCENT DISCREPANCY =          -0.00         PERCENT DISCREPANCY =          -0.00



1
  VOLUMETRIC BUDGET FOR ENTIRE MODEL AT END OF TIME STEP    1, STRESS PERIOD  19
  ------------------------------------------------------------------------------

     CUMULATIVE VOLUMES      L**3       RATES FOR THIS TIME STEP      L**3/T
     ------------------                 ------------------------

           IN:                                      IN:
           ---                                      ---
             STORAGE     =   475259456.0000               STORAGE     =          28.4625
       CONSTANT HEAD     =           0.0000         CONSTANT HEAD     =           0.0000
     HEAD DEP BOUNDS     =    12926190.0000       HEAD DEP BOUNDS     =           0.2882
      STREAM LEAKAGE     =   529412864.0000        STREAM LEAKAGE     =          11.8977
        UZF RECHARGE     =       73223.9531          UZF RECHARGE     =           0.0000
               GW ET     =           0.0000                 GW ET     =           0.0000
     SURFACE LEAKAGE     =           0.0000       SURFACE LEAKAGE     =           0.0000
           AG WELLS      =           0.0000             AG WELLS      =           0.0000

                TOTAL IN =  1017671680.0000                  TOTAL IN =          40.6484

          OUT:                                     OUT:
          ----                                     ----
             STORAGE     =   243029936.0000               STORAGE     =           1.8895
       CONSTANT HEAD     =           0.0000         CONSTANT HEAD     =           0.0000
     HEAD DEP BOUNDS     =    12941083.0000       HEAD DEP BOUNDS     =           0.2888
      STREAM LEAKAGE     =   458656992.0000        STREAM LEAKAGE     =          10.9354
        UZF RECHARGE     =           0.0000          UZF RECHARGE     =           0.0000
               GW ET     =           0.0000                 GW ET     =           0.0000
     SURFACE LEAKAGE     =           0.0000       SURFACE LEAKAGE     =           0.0000
           AG WELLS      =   303053024.0000             AG WELLS      =          27.5346

               TOTAL OUT =  1017681024.0000                 TOTAL OUT =          40.6483

                IN - OUT =       -9344.0000                  IN - OUT =       3.0518E-05

     PERCENT DISCREPANCY =          -0.00         PERCENT DISCREPANCY =           0.00






         TIME SUMMARY AT END OF TIME STEP    1 IN STRESS PERIOD   19
                    SECONDS     MINUTES      HOURS       DAYS        YEARS
                    -----------------------------------------------------------
   TIME STEP LENGTH  87667.      1461.1      24.352      1.0147     2.77799E-03
 STRESS PERIOD TIME  87667.      1461.1      24.352      1.0147     2.77799E-03
         TOTAL TIME 4.48841E+07 7.48069E+05  12468.      519.49      1.4223    
1
 
 SOLVING FOR HEAD 
                                                   Max.-Head-Change                         Max.-Flux-Residual
  Residual-Control   Outer-Iter.   Inner-Iter.     Column Row Layer    Maximum-Head-Change  Column Row Layer    Maximum-Flux-Residual          L2-NORM 
          0                 1           2             5    8     1       0.6147020454E-02       5    8    1         0.3279581127E+00      0.8883399600E+00
          0                 2           2             7   13     1      -0.1636081479E-02       7   13    1        -0.9084743002E-01      0.1263098238E+00
          0                 3           2             7   13     1       0.1113806849E-03       7   13    1         0.6357633034E-02      0.8830645477E-02
          0                 4           1             7   13     1      -0.4433137918E-05       7   13    1        -0.2601004487E-03      0.3606760685E-03

    ------------------------------------------------
       NWT REQUIRED            4 OUTER ITERATIONS 
       AND A TOTAL OF          7 INNER ITERATIONS.
    ------------------------------------------------

 NO OUTPUT CONTROL FOR STRESS PERIOD   19   TIME STEP    2
 
 SOLVING FOR HEAD 
                                                   Max.-Head-Change                         Max.-Flux-Residual
  Residual-Control   Outer-Iter.   Inner-Iter.     Column Row Layer    Maximum-Head-Change  Column Row Layer    Maximum-Flux-Residual          L2-NORM 
          0                 1           2             5    8     1       0.5993372418E-02       5    8    1         0.3194345544E+00      0.8742309833E+00
          0                 2           2             4    7     1      -0.8624745201E-01       5    8    1        -0.4635738119E+01      0.1137231208E+02
          0                 3           2             4    7     1       0.5873013759E-02       5    8    1         0.3244859666E+00      0.7972469818E+00
          0                 4           2             4    7     1      -0.2336932745E-03       5    8    1        -0.1327156798E-01      0.3284466449E-01
          0                 5           1             7   13     1      -0.5238402416E-05       7   13    1        -0.3003298548E-03      0.5115311211E-03

    ------------------------------------------------
       NWT REQUIRED            5 OUTER ITERATIONS 
       AND A TOTAL OF          9 INNER ITERATIONS.
    ------------------------------------------------

 NO OUTPUT CONTROL FOR STRESS PERIOD   19   TIME STEP    3
 
 SOLVING FOR HEAD 
                                                   Max.-Head-Change                         Max.-Flux-Residual
  Residual-Control   Outer-Iter.   Inner-Iter.     Column Row Layer    Maximum-Head-Change  Column Row Layer    Maximum-Flux-Residual          L2-NORM 
          0                 1           2             5    8     1       0.8262575218E-02       5    8    1         0.4443337368E+00      0.1039767449E+01
          0                 2           2             7   13     1      -0.1644673709E-02       7   13    1        -0.9132251528E-01      0.1376221345E+00
          0                 3           2             7   13     1       0.1119654626E-03       7   13    1         0.6390843947E-02      0.9621482905E-02
          0                 4           1             7   13     1      -0.4453933186E-05       7   13    1        -0.2613117913E-03      0.3928423036E-03

    ------------------------------------------------
       NWT REQUIRED            4 OUTER ITERATIONS 
       AND A TOTAL OF          7 INNER ITERATIONS.
    ------------------------------------------------

 NO OUTPUT CONTROL FOR STRESS PERIOD   19   TIME STEP    4
 
 SOLVING FOR HEAD 
                                                   Max.-Head-Change                         Max.-Flux-Residual
  Residual-Control   Outer-Iter.   Inner-Iter.     Column Row Layer    Maximum-Head-Change  Column Row Layer    Maximum-Flux-Residual          L2-NORM 
          0                 1           2             5    8     1       0.7993635994E-02       5    8    1         0.4293761340E+00      0.1016524888E+01
          0                 2           2             4    7     1      -0.8630081316E-01       5    8    1        -0.4646732370E+01      0.1139082028E+02
          0                 3           2             4    7     1       0.5850206884E-02       5    8    1         0.3252554640E+00      0.7978271211E+00
          0                 4           2             4    7     1      -0.2327854086E-03       5    8    1        -0.1330304094E-01      0.3286471637E-01
          0                 5           1             7   13     1      -0.5203966929E-05       7   13    1        -0.2983587394E-03      0.5106080724E-03

    ------------------------------------------------
       NWT REQUIRED            5 OUTER ITERATIONS 
       AND A TOTAL OF          9 INNER ITERATIONS.
    ------------------------------------------------

 NO OUTPUT CONTROL FOR STRESS PERIOD   19   TIME STEP    5
 
 SOLVING FOR HEAD 
                                                   Max.-Head-Change                         Max.-Flux-Residual
  Residual-Control   Outer-Iter.   Inner-Iter.     Column Row Layer    Maximum-Head-Change  Column Row Layer    Maximum-Flux-Residual          L2-NORM 
          0                 1           2             5    8     1       0.1015504062E-01       5    8    1         0.5482637376E+00      0.1210570175E+01
          0                 2           2             7   13     1      -0.1652911662E-02       7   13    1        -0.9177796041E-01      0.1511573707E+00
          0                 3           2             7   13     1       0.1125270568E-03       7   13    1         0.6422714090E-02      0.1056864898E-01
          0                 4           1             7   13     1      -0.4479293494E-05       7   13    1        -0.2627890217E-03      0.4316363294E-03

    ------------------------------------------------
       NWT REQUIRED            4 OUTER ITERATIONS 
       AND A TOTAL OF          7 INNER ITERATIONS.
    ------------------------------------------------

 NO OUTPUT CONTROL FOR STRESS PERIOD   19   TIME STEP    6
 
 SOLVING FOR HEAD 
                                                   Max.-Head-Change                         Max.-Flux-Residual
  Residual-Control   Outer-Iter.   Inner-Iter.     Column Row Layer    Maximum-Head-Change  Column Row Layer    Maximum-Flux-Residual          L2-NORM 
          0                 1           2             5    8     1       0.9785842154E-02       5    8    1         0.5277191533E+00      0.1177676534E+01
          0                 2           2             4    7     1      -0.8640344253E-01       5    8    1        -0.4656566774E+01      0.1140802768E+02
          0                 3           2             4    7     1       0.5883708858E-02       5    8    1         0.3258849539E+00      0.7996517231E+00
          0                 4           2             4    7     1      -0.2341184951E-03       5    8    1        -0.1332307555E-01      0.3293467389E-01
          0                 5           1             7   13     1      -0.5167478300E-05       7   13    1        -0.2962705407E-03      0.5113279746E-03

    ------------------------------------------------
       NWT REQUIRED            5 OUTER ITERATIONS 
       AND A TOTAL OF          9 INNER ITERATIONS.
    ------------------------------------------------

 NO OUTPUT CONTROL FOR STRESS PERIOD   19   TIME STEP    7
 
 SOLVING FOR HEAD 
                                                   Max.-Head-Change                         Max.-Flux-Residual
  Residual-Control   Outer-Iter.   Inner-Iter.     Column Row Layer    Maximum-Head-Change  Column Row Layer    Maximum-Flux-Residual          L2-NORM 
          0                 1           2             5    8     1       0.1185332397E-01       5    8    1         0.6413761015E+00      0.1383728156E+01
          0                 2           2             7   13     1      -0.1660836613E-02       7   13    1        -0.9221607763E-01      0.1655450168E+00
          0                 3           2             7   13     1       0.1130648604E-03       7   13    1         0.6453350910E-02      0.1157546317E-01
          0                 4           1             7   13     1      -0.4497103504E-05       7   13    1        -0.2638366959E-03      0.4727321965E-03

    ------------------------------------------------
       NWT REQUIRED            4 OUTER ITERATIONS 
       AND A TOTAL OF          7 INNER ITERATIONS.
    ------------------------------------------------

 NO OUTPUT CONTROL FOR STRESS PERIOD   19   TIME STEP    8
 
 SOLVING FOR HEAD 
                                                   Max.-Head-Change                         Max.-Flux-Residual
  Residual-Control   Outer-Iter.   Inner-Iter.     Column Row Layer    Maximum-Head-Change  Column Row Layer    Maximum-Flux-Residual          L2-NORM 
          0                 1           2             5    8     1       0.1139690106E-01       5    8    1         0.6159781860E+00      0.1341782163E+01
          0                 2           2             4    7     1      -0.8646149180E-01       5    8    1        -0.4665392783E+01      0.1142406652E+02
          0                 3           2             4    7     1       0.5887222939E-02       5    8    1         0.3265062002E+00      0.7999400857E+00
          0                 4           2             4    7     1      -0.2342583221E-03       5    8    1        -0.1334882540E-01      0.3294223932E-01
          0                 5           1             7   13     1      -0.5130166996E-05       7   13    1        -0.2941322309E-03      0.5100736475E-03

    ------------------------------------------------
       NWT REQUIRED            5 OUTER ITERATIONS 
       AND A TOTAL OF          9 INNER ITERATIONS.
    ------------------------------------------------

 NO OUTPUT CONTROL FOR STRESS PERIOD   19   TIME STEP    9
 
 SOLVING FOR HEAD 
                                                   Max.-Head-Change                         Max.-Flux-Residual
  Residual-Control   Outer-Iter.   Inner-Iter.     Column Row Layer    Maximum-Head-Change  Column Row Layer    Maximum-Flux-Residual          L2-NORM 
          0                 1           2             5    8     1       0.1338167568E-01       5    8    1         0.7250564022E+00      0.1551325240E+01
          0                 2           2             7   13     1      -0.1668451860E-02       7   13    1        -0.9263703742E-01      0.1799653826E+00
          0                 3           2             7   13     1       0.1135838501E-03       7   13    1         0.6482841251E-02      0.1258470172E-01
          0                 4           1             7   13     1      -0.4517851800E-05       7   13    1        -0.2650470740E-03      0.5138757151E-03

    ------------------------------------------------
       NWT REQUIRED            4 OUTER ITERATIONS 
       AND A TOTAL OF          7 INNER ITERATIONS.
    ------------------------------------------------

 NO OUTPUT CONTROL FOR STRESS PERIOD   19   TIME STEP   10
 
 SOLVING FOR HEAD 
                                                   Max.-Head-Change                         Max.-Flux-Residual
  Residual-Control   Outer-Iter.   Inner-Iter.     Column Row Layer    Maximum-Head-Change  Column Row Layer    Maximum-Flux-Residual          L2-NORM 
          0                 1           2             5    8     1       0.1284862814E-01       5    8    1         0.6953948857E+00      0.1501348096E+01
          0                 2           2             4    7     1      -0.8652337564E-01       5    8    1        -0.4673334559E+01      0.1143901757E+02
          0                 3           2             4    7     1       0.5891877737E-02       5    8    1         0.3270651270E+00      0.8017495534E+00
          0                 4           2             4    7     1      -0.2344435333E-03       5    8    1        -0.1337198201E-01      0.3300772293E-01
          0                 5           1             7   13     1      -0.5095070953E-05       7   13    1        -0.2919151427E-03      0.5089811982E-03

    ------------------------------------------------
       NWT REQUIRED            5 OUTER ITERATIONS 
       AND A TOTAL OF          9 INNER ITERATIONS.
    ------------------------------------------------

 NO OUTPUT CONTROL FOR STRESS PERIOD   19   TIME STEP   11
 
 SOLVING FOR HEAD 
                                                   Max.-Head-Change                         Max.-Flux-Residual
  Residual-Control   Outer-Iter.   Inner-Iter.     Column Row Layer    Maximum-Head-Change  Column Row Layer    Maximum-Flux-Residual          L2-NORM 
          0                 1           2             5    8     1       0.1476123917E-01       5    8    1         0.8004750143E+00      0.1710854310E+01
          0                 2           2             7   13     1      -0.1675773681E-02       7   13    1        -0.9304173306E-01      0.1940462995E+00
          0                 3           2             7   13     1       0.1140822075E-03       7   13    1         0.6511157039E-02      0.1357062391E-01
          0                 4           1             7   13     1      -0.4538332539E-05       7   13    1        -0.2662450872E-03      0.5543124821E-03

    ------------------------------------------------
       NWT REQUIRED            4 OUTER ITERATIONS 
       AND A TOTAL OF          7 INNER ITERATIONS.
    ------------------------------------------------

 NO OUTPUT CONTROL FOR STRESS PERIOD   19   TIME STEP   12
 
 SOLVING FOR HEAD 
                                                   Max.-Head-Change                         Max.-Flux-Residual
  Residual-Control   Outer-Iter.   Inner-Iter.     Column Row Layer    Maximum-Head-Change  Column Row Layer    Maximum-Flux-Residual          L2-NORM 
          0                 1           2             5    8     1       0.1416111135E-01       5    8    1         0.7670891254E+00      0.1653664099E+01
          0                 2           2             4    7     1      -0.8658705026E-01       5    8    1        -0.4680504086E+01      0.1145301262E+02
          0                 3           2             4    7     1       0.5896214016E-02       5    8    1         0.3275696199E+00      0.8027108459E+00
          0                 4           2             4    7     1      -0.2346160765E-03       5    8    1        -0.1339287650E-01      0.3304317781E-01
          0                 5           1             7   13     1      -0.5061132952E-05       7   13    1        -0.2899706474E-03      0.5079156376E-03

    ------------------------------------------------
       NWT REQUIRED            5 OUTER ITERATIONS 
       AND A TOTAL OF          9 INNER ITERATIONS.
    ------------------------------------------------

 NO OUTPUT CONTROL FOR STRESS PERIOD   19   TIME STEP   13
 
 SOLVING FOR HEAD 
                                                   Max.-Head-Change                         Max.-Flux-Residual
  Residual-Control   Outer-Iter.   Inner-Iter.     Column Row Layer    Maximum-Head-Change  Column Row Layer    Maximum-Flux-Residual          L2-NORM 
          0                 1           2             5    8     1       0.1601068626E-01       5    8    1         0.8686703745E+00      0.1861371289E+01
          0                 2           2             7   13     1      -0.1682843555E-02       7   13    1        -0.9343246858E-01      0.2075866659E+00
          0                 3           2             7   13     1       0.1145638360E-03       7   13    1         0.6538520525E-02      0.1451858901E-01
          0                 4           1             7   13     1      -0.4556562534E-05       7   13    1        -0.2673090698E-03      0.5930765932E-03

    ------------------------------------------------
       NWT REQUIRED            4 OUTER ITERATIONS 
       AND A TOTAL OF          7 INNER ITERATIONS.
    ------------------------------------------------

 NO OUTPUT CONTROL FOR STRESS PERIOD   19   TIME STEP   14
 
 SOLVING FOR HEAD 
                                                   Max.-Head-Change                         Max.-Flux-Residual
  Residual-Control   Outer-Iter.   Inner-Iter.     Column Row Layer    Maximum-Head-Change  Column Row Layer    Maximum-Flux-Residual          L2-NORM 
          0                 1           2             5    8     1       0.1535156054E-01       5    8    1         0.8320133104E+00      0.1797802559E+01
          0                 2           2             4    7     1      -0.8665249211E-01       5    8    1        -0.4686996605E+01      0.1146615273E+02
          0                 3           2             4    7     1       0.5900670581E-02       5    8    1         0.3280264023E+00      0.8036116868E+00
          0                 4           2             4    7     1      -0.2347934076E-03       5    8    1        -0.1341178789E-01      0.3307626067E-01
          0                 5           1             7   13     1      -0.5027070225E-05       7   13    1        -0.2880205477E-03      0.5070370181E-03

    ------------------------------------------------
       NWT REQUIRED            5 OUTER ITERATIONS 
       AND A TOTAL OF          9 INNER ITERATIONS.
    ------------------------------------------------

 NO OUTPUT CONTROL FOR STRESS PERIOD   19   TIME STEP   15
 
 SOLVING FOR HEAD 
                                                   Max.-Head-Change                         Max.-Flux-Residual
  Residual-Control   Outer-Iter.   Inner-Iter.     Column Row Layer    Maximum-Head-Change  Column Row Layer    Maximum-Flux-Residual          L2-NORM 
          0                 1           2             5    8     1       0.1714558766E-01       5    8    1         0.9305155178E+00      0.2002760319E+01
          0                 2           2             7   13     1      -0.1689645596E-02       7   13    1        -0.9380837344E-01      0.2204900682E+00
          0                 3           2             7   13     1       0.1150256203E-03       7   13    1         0.6564753606E-02      0.1542197950E-01
          0                 4           1             7   13     1      -0.4574722071E-05       7   13    1        -0.2683709008E-03      0.6300775172E-03

    ------------------------------------------------
       NWT REQUIRED            4 OUTER ITERATIONS 
       AND A TOTAL OF          7 INNER ITERATIONS.
    ------------------------------------------------

 NO OUTPUT CONTROL FOR STRESS PERIOD   19   TIME STEP   16
 
 SOLVING FOR HEAD 
                                                   Max.-Head-Change                         Max.-Flux-Residual
  Residual-Control   Outer-Iter.   Inner-Iter.     Column Row Layer    Maximum-Head-Change  Column Row Layer    Maximum-Flux-Residual          L2-NORM 
          0                 1           2             5    8     1       0.1643482004E-01       5    8    1         0.8909983620E+00      0.1933566531E+01
          0                 2           2             4    7     1      -0.8671916253E-01       5    8    1        -0.4692895205E+01      0.1147851131E+02
          0                 3           2             4    7     1       0.5905210755E-02       5    8    1         0.3284413329E+00      0.8044623877E+00
          0                 4           2             4    7     1      -0.2349740646E-03       5    8    1        -0.1342895998E-01      0.3310791671E-01
          0                 5           1             7   13     1      -0.4994778997E-05       7   13    1        -0.2861730902E-03      0.5063911383E-03

    ------------------------------------------------
       NWT REQUIRED            5 OUTER ITERATIONS 
       AND A TOTAL OF          9 INNER ITERATIONS.
    ------------------------------------------------

 NO OUTPUT CONTROL FOR STRESS PERIOD   19   TIME STEP   17
 
 SOLVING FOR HEAD 
                                                   Max.-Head-Change                         Max.-Flux-Residual
  Residual-Control   Outer-Iter.   Inner-Iter.     Column Row Layer    Maximum-Head-Change  Column Row Layer    Maximum-Flux-Residual          L2-NORM 
          0                 1           2             5    8     1       0.1817998394E-01       5    8    1         0.9867957449E+00      0.2135336926E+01
          0                 2           2             5    8     1      -0.1768430723E-02       5    8    1        -0.9868055421E-01      0.2327250769E+00
          0                 3           2             5    8     1       0.1204234394E-03       5    8    1         0.6907632513E-02      0.1627847938E-01
          0                 4           1             5    8     1      -0.4791762235E-05       5    8    1        -0.2825226231E-03      0.6650866551E-03

    ------------------------------------------------
       NWT REQUIRED            4 OUTER ITERATIONS 
       AND A TOTAL OF          7 INNER ITERATIONS.
    ------------------------------------------------

 NO OUTPUT CONTROL FOR STRESS PERIOD   19   TIME STEP   18
 
 SOLVING FOR HEAD 
                                                   Max.-Head-Change                         Max.-Flux-Residual
  Residual-Control   Outer-Iter.   Inner-Iter.     Column Row Layer    Maximum-Head-Change  Column Row Layer    Maximum-Flux-Residual          L2-NORM 
          0                 1           2             5    8     1       0.1742346799E-01       5    8    1         0.9447486978E+00      0.2061156869E+01
          0                 2           2             4    7     1      -0.8678656207E-01       5    8    1        -0.4698270328E+01      0.1149014983E+02
          0                 3           2             4    7     1       0.5909800537E-02       5    8    1         0.3288193799E+00      0.8052632128E+00
          0                 4           2             4    7     1      -0.2351566957E-03       5    8    1        -0.1344459972E-01      0.3313743098E-01
          0                 5           1             7   13     1      -0.4969418510E-05       7   13    1        -0.2847212677E-03      0.5057089334E-03

    ------------------------------------------------
       NWT REQUIRED            5 OUTER ITERATIONS 
       AND A TOTAL OF          9 INNER ITERATIONS.
    ------------------------------------------------

 NO OUTPUT CONTROL FOR STRESS PERIOD   19   TIME STEP   19
 
 SOLVING FOR HEAD 
                                                   Max.-Head-Change                         Max.-Flux-Residual
  Residual-Control   Outer-Iter.   Inner-Iter.     Column Row Layer    Maximum-Head-Change  Column Row Layer    Maximum-Flux-Residual          L2-NORM 
          0                 1           2             5    8     1       0.1912553547E-01       5    8    1         0.1038163148E+01      0.2259600512E+01
          0                 2           2             5    8     1      -0.1860408451E-02       5    8    1        -0.1038173885E+00      0.2442956373E+00
          0                 3           2             5    8     1       0.1266867680E-03       5    8    1         0.7267210175E-02      0.1708873690E-01
          0                 4           1             5    8     1      -0.5040985399E-05       5    8    1        -0.2972293432E-03      0.6982481303E-03

    ------------------------------------------------
       NWT REQUIRED            4 OUTER ITERATIONS 
       AND A TOTAL OF          7 INNER ITERATIONS.
    ------------------------------------------------

 NO OUTPUT CONTROL FOR STRESS PERIOD   19   TIME STEP   20
 
 SOLVING FOR HEAD 
                                                   Max.-Head-Change                         Max.-Flux-Residual
  Residual-Control   Outer-Iter.   Inner-Iter.     Column Row Layer    Maximum-Head-Change  Column Row Layer    Maximum-Flux-Residual          L2-NORM 
          0                 1           2             5    8     1       0.1832861689E-01       5    8    1         0.9938846244E+00      0.2181002913E+01
          0                 2           2             4    7     1      -0.8685425025E-01       5    8    1        -0.4703184005E+01      0.1150112709E+02
          0                 3           2             4    7     1       0.5914409934E-02       5    8    1         0.3291649154E+00      0.8060227988E+00
          0                 4           2             4    7     1      -0.2353401074E-03       5    8    1        -0.1345888887E-01      0.3316625096E-01
          0                 5           1             7   13     1      -0.4933824980E-05       7   13    1        -0.2826807402E-03      0.5048814795E-03

    ------------------------------------------------
       NWT REQUIRED            5 OUTER ITERATIONS 
       AND A TOTAL OF          9 INNER ITERATIONS.
    ------------------------------------------------

 NO OUTPUT CONTROL FOR STRESS PERIOD   19   TIME STEP   21
 
 SOLVING FOR HEAD 
                                                   Max.-Head-Change                         Max.-Flux-Residual
  Residual-Control   Outer-Iter.   Inner-Iter.     Column Row Layer    Maximum-Head-Change  Column Row Layer    Maximum-Flux-Residual          L2-NORM 
          0                 1           2             5    8     1       0.1999241301E-01       5    8    1         0.1085185980E+01      0.2376111134E+01
          0                 2           2             5    8     1      -0.1944733261E-02       5    8    1        -0.1085197596E+00      0.2552218126E+00
          0                 3           2             5    8     1       0.1324289627E-03       5    8    1         0.7596375458E-02      0.1785366608E-01
          0                 4           1             5    8     1      -0.5269473046E-05       5    8    1        -0.3106922347E-03      0.7294919109E-03

    ------------------------------------------------
       NWT REQUIRED            4 OUTER ITERATIONS 
       AND A TOTAL OF          7 INNER ITERATIONS.
    ------------------------------------------------

 NO OUTPUT CONTROL FOR STRESS PERIOD   19   TIME STEP   22
 
 SOLVING FOR HEAD 
                                                   Max.-Head-Change                         Max.-Flux-Residual
  Residual-Control   Outer-Iter.   Inner-Iter.     Column Row Layer    Maximum-Head-Change  Column Row Layer    Maximum-Flux-Residual          L2-NORM 
          0                 1           2             5    8     1       0.1915971206E-01       5    8    1         0.1038933492E+01      0.2293602812E+01
          0                 2           2             4    7     1      -0.8692187824E-01       5    8    1        -0.4707688971E+01      0.1151149524E+02
          0                 3           2             4    7     1       0.5919015202E-02       5    8    1         0.3294816574E+00      0.8067237945E+00
          0                 4           2             4    7     1      -0.2355233550E-03       5    8    1        -0.1347198216E-01      0.3319019610E-01
          0                 5           1             7   13     1      -0.4904192066E-05       7   13    1        -0.2809838197E-03      0.5038240542E-03

    ------------------------------------------------
       NWT REQUIRED            5 OUTER ITERATIONS 
       AND A TOTAL OF          9 INNER ITERATIONS.
    ------------------------------------------------

 NO OUTPUT CONTROL FOR STRESS PERIOD   19   TIME STEP   23
 
 SOLVING FOR HEAD 
                                                   Max.-Head-Change                         Max.-Flux-Residual
  Residual-Control   Outer-Iter.   Inner-Iter.     Column Row Layer    Maximum-Head-Change  Column Row Layer    Maximum-Flux-Residual          L2-NORM 
          0                 1           2             5    8     1       0.2078968790E-01       5    8    1         0.1128369633E+01      0.2485473239E+01
          0                 2           2             5    8     1      -0.2022287547E-02       5    8    1        -0.1128382069E+00      0.2655378896E+00
          0                 3           2             5    8     1       0.1377101105E-03       5    8    1         0.7898666127E-02      0.1857601648E-01
          0                 4           1             5    8     1      -0.5479614994E-05       5    8    1        -0.3230559430E-03      0.7590227179E-03

    ------------------------------------------------
       NWT REQUIRED            4 OUTER ITERATIONS 
       AND A TOTAL OF          7 INNER ITERATIONS.
    ------------------------------------------------

 NO OUTPUT CONTROL FOR STRESS PERIOD   19   TIME STEP   24
 
 SOLVING FOR HEAD 
                                                   Max.-Head-Change                         Max.-Flux-Residual
  Residual-Control   Outer-Iter.   Inner-Iter.     Column Row Layer    Maximum-Head-Change  Column Row Layer    Maximum-Flux-Residual          L2-NORM 
          0                 1           2             5    8     1       0.1992505087E-01       5    8    1         0.1080357790E+01      0.2399479401E+01
          0                 2           2             4    7     1      -0.8698912785E-01       5    8    1        -0.4711831475E+01      0.1152130129E+02
          0                 3           2             4    7     1       0.5923594673E-02       5    8    1         0.3297728665E+00      0.8073983224E+00
          0                 4           2             4    7     1      -0.2357055761E-03       5    8    1        -0.1348401523E-01      0.3321520629E-01
          0                 5           1             7   13     1      -0.4874337626E-05       7   13    1        -0.2792747641E-03      0.5030957934E-03

    ------------------------------------------------
       NWT REQUIRED            5 OUTER ITERATIONS 
       AND A TOTAL OF          9 INNER ITERATIONS.
    ------------------------------------------------

 NO OUTPUT CONTROL FOR STRESS PERIOD   19   TIME STEP   25
 
 SOLVING FOR HEAD 
                                                   Max.-Head-Change                         Max.-Flux-Residual
  Residual-Control   Outer-Iter.   Inner-Iter.     Column Row Layer    Maximum-Head-Change  Column Row Layer    Maximum-Flux-Residual          L2-NORM 
          0                 1           2             5    8     1       0.2152493529E-01       5    8    1         0.1168136411E+01      0.2588238261E+01
          0                 2           2             5    8     1      -0.2093808178E-02       5    8    1        -0.1168149612E+00      0.2752824666E+00
          0                 3           2             5    8     1       0.1425803900E-03       5    8    1         0.8177038331E-02      0.1925828969E-01
          0                 4           1             5    8     1      -0.5673408132E-05       5    8    1        -0.3344414097E-03      0.7872406345E-03

    ------------------------------------------------
       NWT REQUIRED            4 OUTER ITERATIONS 
       AND A TOTAL OF          7 INNER ITERATIONS.
    ------------------------------------------------

 NO OUTPUT CONTROL FOR STRESS PERIOD   19   TIME STEP   26
 
 SOLVING FOR HEAD 
                                                   Max.-Head-Change                         Max.-Flux-Residual
  Residual-Control   Outer-Iter.   Inner-Iter.     Column Row Layer    Maximum-Head-Change  Column Row Layer    Maximum-Flux-Residual          L2-NORM 
          0                 1           2             5    8     1       0.2063197272E-01       5    8    1         0.1118565999E+01      0.2499133482E+01
          0                 2           2             4    7     1      -0.8705575628E-01       5    8    1        -0.4715652364E+01      0.1153058737E+02
          0                 3           2             4    7     1       0.5928131822E-02       5    8    1         0.3300414206E+00      0.8080366172E+00
          0                 4           2             4    7     1      -0.2358861133E-03       5    8    1        -0.1349510761E-01      0.3323879679E-01
          0                 5           1             7   13     1      -0.4847691056E-05       7   13    1        -0.2777502314E-03      0.5024135913E-03

    ------------------------------------------------
       NWT REQUIRED            5 OUTER ITERATIONS 
       AND A TOTAL OF          9 INNER ITERATIONS.
    ------------------------------------------------

 NO OUTPUT CONTROL FOR STRESS PERIOD   19   TIME STEP   27
 
 SOLVING FOR HEAD 
                                                   Max.-Head-Change                         Max.-Flux-Residual
  Residual-Control   Outer-Iter.   Inner-Iter.     Column Row Layer    Maximum-Head-Change  Column Row Layer    Maximum-Flux-Residual          L2-NORM 
          0                 1           2             5    8     1       0.2220485351E-01       5    8    1         0.1204858959E+01      0.2684921872E+01
          0                 2           2             5    8     1      -0.2159946697E-02       5    8    1        -0.1204872873E+00      0.2844827247E+00
          0                 3           2             5    8     1       0.1470841676E-03       5    8    1         0.8434100587E-02      0.1990236506E-01
          0                 4           1             5    8     1      -0.5852617482E-05       5    8    1        -0.3449552551E-03      0.8133189860E-03

    ------------------------------------------------
       NWT REQUIRED            4 OUTER ITERATIONS 
       AND A TOTAL OF          7 INNER ITERATIONS.
    ------------------------------------------------

 NO OUTPUT CONTROL FOR STRESS PERIOD   19   TIME STEP   28
 
 SOLVING FOR HEAD 
                                                   Max.-Head-Change                         Max.-Flux-Residual
  Residual-Control   Outer-Iter.   Inner-Iter.     Column Row Layer    Maximum-Head-Change  Column Row Layer    Maximum-Flux-Residual          L2-NORM 
          0                 1           2             5    8     1       0.2128637141E-01       5    8    1         0.1153905426E+01      0.2590571378E+01
          0                 2           2             4    7     1      -0.8911134986E-01       5    8    1        -0.4825985495E+01      0.1179883269E+02
          0                 3           2             4    7     1       0.6068108055E-02       5    8    1         0.3377636321E+00      0.8267849176E+00
          0                 4           2             4    7     1      -0.2414559084E-03       5    8    1        -0.1381091733E-01      0.3399974703E-01
          0                 5           1             7   13     1      -0.4828514841E-05       7   13    1        -0.2766471198E-03      0.5100529013E-03

    ------------------------------------------------
       NWT REQUIRED            5 OUTER ITERATIONS 
       AND A TOTAL OF          9 INNER ITERATIONS.
    ------------------------------------------------

 NO OUTPUT CONTROL FOR STRESS PERIOD   19   TIME STEP   29
 
 SOLVING FOR HEAD 
                                                   Max.-Head-Change                         Max.-Flux-Residual
  Residual-Control   Outer-Iter.   Inner-Iter.     Column Row Layer    Maximum-Head-Change  Column Row Layer    Maximum-Flux-Residual          L2-NORM 
          0                 1           2             5    8     1       0.2289029182E-01       5    8    1         0.1241934853E+01      0.2776638991E+01
          0                 2           2             5    8     1      -0.2226622167E-02       5    8    1        -0.1241949470E+00      0.2902821413E+00
          0                 3           2             5    8     1       0.1516245100E-03       5    8    1         0.8693636210E-02      0.2031192488E-01
          0                 4           1             5    8     1      -0.6033282275E-05       5    8    1        -0.3555702826E-03      0.8302984925E-03

    ------------------------------------------------
       NWT REQUIRED            4 OUTER ITERATIONS 
       AND A TOTAL OF          7 INNER ITERATIONS.
    ------------------------------------------------

 NO OUTPUT CONTROL FOR STRESS PERIOD   19   TIME STEP   30



 STREAM LISTING     PERIOD     19   STEP       30

 LAYER ROW COL. STREAM  RCH.  FLOW INTO     FLOW TO   FLOW OUT OF   OVRLND.     DIRECT     STREAM       STREAM     STREAM     STREAM   STREAMBED  STREAMBED
                SEG.NO.  NO.  STRM. RCH.    AQUIFER    STRM. RCH.    RUNOFF     PRECIP       ET          HEAD       DEPTH      WIDTH   CONDCTNC.   GRADIENT

   1    1    1     1     1    2.0250E+01  2.2212E-01   2.0028E+01  0.000E+00  0.000E+00  0.000E+00  1.09415E+03  1.102E+00  1.203E+01  5.414E-02  1.367E+00
   1    2    2     1     2    2.0028E+01  3.4298E-01   1.9685E+01  0.000E+00  0.000E+00  0.000E+00  1.08916E+03  1.098E+00  1.196E+01  8.370E-02  1.366E+00
   1    3    3     1     3    1.9685E+01  2.9127E-01   1.9394E+01  0.000E+00  0.000E+00  0.000E+00  1.08351E+03  1.093E+00  1.186E+01  7.117E-02  1.364E+00
   1    3    4     1     4    1.9394E+01  2.6721E-01   1.9127E+01  0.000E+00  0.000E+00  0.000E+00  1.07850E+03  1.088E+00  1.178E+01  6.536E-02  1.363E+00
   1    4    5     2     1    1.7127E+01  3.0866E-01   1.6818E+01  0.000E+00  0.000E+00  0.000E+00  1.07289E+03  9.572E-01  1.200E+01  7.800E-02  1.319E+00
   1    5    6     2     2    1.6818E+01  2.3687E-01   1.6581E+01  0.000E+00  0.000E+00  0.000E+00  1.06746E+03  9.479E-01  1.200E+01  6.000E-02  1.316E+00
   1    6    6     2     3    1.6581E+01  2.3639E-01   1.6345E+01  0.000E+00  0.000E+00  0.000E+00  1.06273E+03  9.398E-01  1.200E+01  6.000E-02  1.313E+00
   1    7    6     2     4    1.6345E+01  2.3590E-01   1.6109E+01  0.000E+00  0.000E+00  0.000E+00  1.05801E+03  9.317E-01  1.200E+01  6.000E-02  1.311E+00
   1    8    6     2     5    1.6109E+01  2.3541E-01   1.5873E+01  0.000E+00  0.000E+00  0.000E+00  1.05328E+03  9.236E-01  1.200E+01  6.000E-02  1.308E+00
   1    3    5     3     1    2.0000E+00  2.8252E-01   1.7175E+00  0.000E+00  0.000E+00  0.000E+00  1.07555E+03  1.909E+00  9.636E+00  7.227E-02  1.955E+00
   1    3    6     3     2    1.7175E+00  2.4905E-01   1.4684E+00  0.000E+00  0.000E+00  0.000E+00  1.07264E+03  1.727E+00  8.909E+00  6.682E-02  1.864E+00
   1    3    7     3     3    1.4684E+00  1.9718E-01   1.2712E+00  0.000E+00  0.000E+00  0.000E+00  1.06987E+03  1.555E+00  8.218E+00  5.547E-02  1.777E+00
   1    4    8     3     4    1.2712E+00  2.2567E-01   1.0456E+00  0.000E+00  0.000E+00  0.000E+00  1.06682E+03  1.364E+00  7.455E+00  6.709E-02  1.682E+00
   1    5    8     3     5    1.0456E+00  1.5790E-01   8.8768E-01  0.000E+00  0.000E+00  0.000E+00  1.06362E+03  1.164E+00  6.655E+00  4.991E-02  1.582E+00
   1    6    8     3     6    8.8768E-01  5.5980E-02   8.3170E-01  0.000E+00  0.000E+00  0.000E+00  1.06158E+03  1.036E+00  6.145E+00  1.844E-02  1.518E+00
   1    5   10     4     1    1.0000E+01  9.0919E-02   9.9091E+00  0.000E+00  0.000E+00  0.000E+00  1.07836E+03  6.368E-01  1.000E+01  2.500E-02  1.212E+00
   1    5    9     4     2    9.9091E+00  1.8158E-01   9.7275E+00  0.000E+00  0.000E+00  0.000E+00  1.07154E+03  6.315E-01  1.000E+01  5.000E-02  1.211E+00
   1    6    8     4     3    9.7275E+00  1.2689E-01   9.6006E+00  0.000E+00  0.000E+00  0.000E+00  1.06381E+03  6.256E-01  1.000E+01  3.500E-02  1.209E+00
   1    6    8     5     1    1.0432E+01  2.2686E-01   1.0205E+01  0.000E+00  0.000E+00  0.000E+00  1.05868E+03  6.790E-01  1.542E+01  6.166E-02  1.226E+00
   1    7    7     5     2    1.0205E+01  2.7894E-01   9.9265E+00  0.000E+00  0.000E+00  0.000E+00  1.05417E+03  6.732E-01  1.519E+01  7.594E-02  1.224E+00
   1    8    7     5     3    9.9265E+00  1.9221E-01   9.7343E+00  0.000E+00  0.000E+00  0.000E+00  1.04992E+03  6.676E-01  1.497E+01  5.241E-02  1.223E+00
   1    8    6     5     4    9.7343E+00  1.3577E-01   9.5985E+00  0.000E+00  0.000E+00  0.000E+00  1.04691E+03  6.637E-01  1.482E+01  3.706E-02  1.221E+00
   1    9    6     6     1    2.5472E+01  2.5387E-01   2.5218E+01  0.000E+00  0.000E+00  0.000E+00  1.04396E+03  1.231E+00  1.200E+01  6.000E-02  1.410E+00
   1   10    7     6     2    2.5218E+01  2.5342E-01   2.4965E+01  0.000E+00  0.000E+00  0.000E+00  1.03941E+03  1.224E+00  1.200E+01  6.000E-02  1.408E+00
   1   11    7     6     3    2.4965E+01  2.5298E-01   2.4712E+01  0.000E+00  0.000E+00  0.000E+00  1.03485E+03  1.216E+00  1.200E+01  6.000E-02  1.405E+00
   1   12    7     6     4    2.4712E+01  2.5253E-01   2.4459E+01  0.000E+00  0.000E+00  0.000E+00  1.03030E+03  1.209E+00  1.200E+01  6.000E-02  1.403E+00
   1   13    7     6     5    2.4459E+01  8.7773E-03   2.4450E+01  0.000E+00  0.000E+00  0.000E+00  1.02711E+03  1.205E+00  1.200E+01  2.400E-02  1.219E-01
   1   14    9     7     1    1.5000E+02  1.3725E+00   1.4863E+02  0.000E+00  0.000E+00  0.000E+00  1.03987E+03  2.288E+00  5.529E+01  5.593E-01  8.180E-01
   1   13    8     7     2    1.4863E+02  1.9404E+00   1.4669E+02  0.000E+00  0.000E+00  0.000E+00  1.03478E+03  2.279E+00  5.525E+01  6.147E-01  1.052E+00
   1   13    7     7     3    1.4669E+02  1.6418E+00   1.4505E+02  0.000E+00  0.000E+00  0.000E+00  1.02969E+03  2.269E+00  5.521E+01  5.584E-01  9.801E-01
   1   13    6     8     1    1.6950E+02  1.0785E+00   1.6842E+02  0.000E+00  0.000E+00  0.000E+00  1.02482E+03  2.945E+00  4.271E+01  4.352E-01  8.261E-01
   1   13    5     8     2    1.6842E+02  3.1399E-01   1.6810E+02  0.000E+00  0.000E+00  0.000E+00  1.01857E+03  2.941E+00  4.264E+01  4.345E-01  2.409E-01
   1   13    4     8     3    1.6810E+02 -1.8887E+00   1.6999E+02  0.000E+00  0.000E+00  0.000E+00  1.01232E+03  2.946E+00  4.272E+01  4.353E+00 -1.446E-01
   1   13    3     8     4    1.6999E+02 -3.3211E+00   1.7331E+02  0.000E+00  0.000E+00  0.000E+00  1.00609E+03  2.963E+00  4.296E+01  4.378E+00 -2.529E-01
   1   13    2     8     5    1.7331E+02 -2.3892E+00   1.7570E+02  0.000E+00  0.000E+00  0.000E+00  9.99856E+02  2.981E+00  4.323E+01  4.405E+00 -1.808E-01
   1   13    1     8     6    1.7570E+02 -1.8987E+00   1.7760E+02  0.000E+00  0.000E+00  0.000E+00  9.94870E+02  2.995E+00  4.343E+01  2.655E+00 -2.384E-01
   1    8    6     9     1    0.0000E+00  0.0000E+00   0.0000E+00  0.000E+00  0.000E+00  0.000E+00  1.07875E+03  0.000E+00  4.000E+00  0.000E+00  1.000E+00
   1    8    5     9     2    0.0000E+00  0.0000E+00   0.0000E+00  0.000E+00  0.000E+00  0.000E+00  1.07825E+03  0.000E+00  4.000E+00  0.000E+00  1.000E+00





UNSATURATED ZONE PACKAGE VOLUMETRIC BUDGET FOR  TIME STEP    30 STRESS PERIOD   19
  ------------------------------------------------------------------------------



     CUMULATIVE VOLUMES      L**3       RATES FOR THIS TIME STEP      L**3/T
     ------------------                 ------------------------

           IN:                                      IN:
           ---                                      ---
        INFILTRATION =   620255712.8359          INFILTRATION =           0.8475

          OUT:                                     OUT:
          ----                                     ----
              UZF ET =   532628434.9114                UZF ET =          23.5105
        UZF RECHARGE =       73224.0000          UZF RECHARGE =       0.0000E+00

            IN - OUT =    87554053.9244              IN - OUT =         -22.6630

          STORAGE:                                 STORAGE:
          --------                                 --------
      STORAGE CHANGE =    87554547.2518        STORAGE CHANGE =         -22.6628

 PERCENT DISCREPANCY IS DIFFERENCE BETWEEN IN-OUT MINUS CHANGE IN STORAGE
 DIVIDED BY THE AVERAGE OF IN AND OUT TIMES 100

 PERCENT DISCREPANCY =          -0.00     PERCENT DISCREPANCY =          -0.00






1
  VOLUMETRIC BUDGET FOR AGRICULTURAL FIELDS AT  END OF TIME STEP   30, STRESS PERIOD  19
  ------------------------------------------------------------------------------

     CUMULATIVE VOLUMES      L**3       RATES FOR THIS TIME STEP      L**3/T
     ------------------                 ------------------------

           IN:                                      IN:
           ---                                      ---
               AG WELLS  =   337011584.0000                 AG WELLS  =           0.0000
      DIVERSION SEGMENTS =   243048096.0000        DIVERSION SEGMENTS =           0.0000
           GW IRRIGATION =           0.0000             GW IRRIGATION =           0.0000
           SW IRRIGATION =           0.0000             SW IRRIGATION =           0.0000
        SYSTEM LOSSES GW =           0.0000          SYSTEM LOSSES GW =           0.0000
        SYSTEM LOSSES SW =           0.0000          SYSTEM LOSSES SW =           0.0000

                TOTAL IN =   580059648.0000                  TOTAL IN =           0.0000

          OUT:                                     OUT:
          ----                                     ----
               AG WELLS  =           0.0000                 AG WELLS  =           0.0000
      DIVERSION SEGMENTS =           0.0000        DIVERSION SEGMENTS =           0.0000
           GW IRRIGATION =   337011584.0000             GW IRRIGATION =           0.0000
           SW IRRIGATION =   243053088.0000             SW IRRIGATION =           0.0000
        SYSTEM LOSSES GW =           0.0000          SYSTEM LOSSES GW =           0.0000
        SYSTEM LOSSES SW =           0.0000          SYSTEM LOSSES SW =           0.0000

               TOTAL OUT =   580064640.0000                 TOTAL OUT =           0.0000

                IN - OUT =       -4992.0000                  IN - OUT =           0.0000

     PERCENT DISCREPANCY =          -0.00         PERCENT DISCREPANCY =           0.00



1
  VOLUMETRIC BUDGET FOR ENTIRE MODEL AT END OF TIME STEP   30, STRESS PERIOD  19
  ------------------------------------------------------------------------------

     CUMULATIVE VOLUMES      L**3       RATES FOR THIS TIME STEP      L**3/T
     ------------------                 ------------------------

           IN:                                      IN:
           ---                                      ---
             STORAGE     =   512402976.0000               STORAGE     =           4.2109
       CONSTANT HEAD     =           0.0000         CONSTANT HEAD     =           0.0000
     HEAD DEP BOUNDS     =    13658981.0000       HEAD DEP BOUNDS     =           0.2883
      STREAM LEAKAGE     =   560082816.0000        STREAM LEAKAGE     =          12.1471
        UZF RECHARGE     =       73223.9531          UZF RECHARGE     =           0.0000
               GW ET     =           0.0000                 GW ET     =           0.0000
     SURFACE LEAKAGE     =           0.0000       SURFACE LEAKAGE     =           0.0000
           AG WELLS      =           0.0000             AG WELLS      =           0.0000

                TOTAL IN =  1086217984.0000                  TOTAL IN =          16.6463

          OUT:                                     OUT:
          ----                                     ----
             STORAGE     =   251185040.0000               STORAGE     =           6.8603
       CONSTANT HEAD     =           0.0000         CONSTANT HEAD     =           0.0000
     HEAD DEP BOUNDS     =    13674448.0000       HEAD DEP BOUNDS     =           0.2882
      STREAM LEAKAGE     =   484356128.0000        STREAM LEAKAGE     =           9.4978
        UZF RECHARGE     =           0.0000          UZF RECHARGE     =           0.0000
               GW ET     =           0.0000                 GW ET     =           0.0000
     SURFACE LEAKAGE     =           0.0000       SURFACE LEAKAGE     =           0.0000
           AG WELLS      =   337011584.0000             AG WELLS      =           0.0000

               TOTAL OUT =  1086227200.0000                 TOTAL OUT =          16.6462

                IN - OUT =       -9216.0000                  IN - OUT =       1.7166E-05

     PERCENT DISCREPANCY =          -0.00         PERCENT DISCREPANCY =           0.00






         TIME SUMMARY AT END OF TIME STEP   30 IN STRESS PERIOD   19
                    SECONDS     MINUTES      HOURS       DAYS        YEARS
                    -----------------------------------------------------------
   TIME STEP LENGTH  87667.      1461.1      24.352      1.0147     2.77799E-03
 STRESS PERIOD TIME 2.63000E+06  43833.      730.56      30.440     8.33397E-02
         TOTAL TIME 4.74265E+07 7.90442E+05  13174.      548.92      1.5029    
1
1
                            STRESS PERIOD NO.   20, LENGTH =   2630000.    
                            -----------------------------------------------

                              NUMBER OF TIME STEPS =    30

                               MULTIPLIER FOR DELT =     1.000

                            INITIAL TIME STEP SIZE =   87666.66    

 REUSING NON-PARAMETER GHB CELLS FROM LAST STRESS PERIOD

      2 GHB CELLS

 REUSING STREAM SEGMENT DATA FROM LAST STRESS PERIOD



            AREAL INFILTRATION RATE
 READING ON UNIT   19 WITH FORMAT: (FREE)              

            1           2           3           4           5           6           7           8           9          10
 ........................................................................................................................
   1   1.0000E-10  2.0000E-10   0.000       0.000       0.000       0.000       0.000       0.000       0.000       0.000    
   2   2.0000E-10  1.0000E-10  2.0000E-10   0.000       0.000      8.0000E-10  8.0000E-10  5.0000E-10   0.000       0.000    
   3    0.000      5.0000E-10  1.0000E-10  1.0000E-10  8.0000E-10  8.0000E-10  5.0000E-10  5.0000E-10   0.000       0.000    
   4   8.0000E-10  5.0000E-10  1.0000E-10  1.0000E-10  1.0000E-10  1.0000E-10  1.0000E-10  1.0000E-10  2.0000E-10   0.000    
   5   8.0000E-10  5.0000E-10  1.0000E-10  1.0000E-10  1.0000E-10  1.0000E-10  1.0000E-10  1.0000E-10  1.0000E-10  1.0000E-10
   6   8.0000E-10  5.0000E-10  5.0000E-10  2.0000E-10  2.0000E-10  1.0000E-10  1.0000E-10  1.0000E-10  1.0000E-10  5.0000E-10
   7   8.0000E-10  5.0000E-10  5.0000E-10  2.0000E-10  2.0000E-10  1.0000E-10  1.0000E-10  2.0000E-10  2.0000E-10   0.000    
   8    0.000      5.0000E-10  5.0000E-10  2.0000E-10  2.0000E-10  1.0000E-10  1.0000E-10  2.0000E-10  5.0000E-10   0.000    
   9    0.000      5.0000E-10  5.0000E-10  2.0000E-10  2.0000E-10  1.0000E-10  1.0000E-10  2.0000E-10  5.0000E-10   0.000    
  10    0.000      5.0000E-10  5.0000E-10  2.0000E-10  2.0000E-10  1.0000E-10  1.0000E-10  2.0000E-10  5.0000E-10  8.0000E-10
  11    0.000      1.0000E-10  1.0000E-10  1.0000E-10  1.0000E-10  1.0000E-10  1.0000E-10  2.0000E-10  5.0000E-10   0.000    
  12   1.0000E-10  1.0000E-10  1.0000E-10  1.0000E-10  1.0000E-10  1.0000E-10  1.0000E-10  1.0000E-10  2.0000E-10   0.000    
  13   1.0000E-10  1.0000E-10  2.0000E-10  2.0000E-10  2.0000E-10  2.0000E-10  2.0000E-10  1.0000E-10  1.0000E-10   0.000    
  14    0.000      2.0000E-10  5.0000E-10  5.0000E-10  5.0000E-10  5.0000E-10  5.0000E-10  2.0000E-10  1.0000E-10   0.000    
  15    0.000       0.000      8.0000E-10  8.0000E-10  8.0000E-10  8.0000E-10   0.000       0.000       0.000       0.000    

                  ET RATE =  4.000000E-07

 USING ET EXTINCTION DEPTH FROM PREVIOUS STRESS PERIOD. CURRENT PERIOD IS:      20

 USING EXTINCTION WATER CONTENT FROM PREVIOUS STRESS PERIOD. CURRENT PERIOD IS:      20

 USING AIR ENTRY PRESSURE FROM PREVIOUS STRESS PERIOD. CURRENT PERIOD IS:      20

 USING ROOT PRESSURE HEAD FROM PREVIOUS STRESS PERIOD. CURRENT PERIOD IS:      20

 USING ROOT ACTIVITY FROM PREVIOUS STRESS PERIOD. CURRENT PERIOD IS:      20

 PROCESSING AG STRESS PERIOD DATA

 READING AG STRESS PERIOD DATA

 READING IRRIGATION SEGMENT

 READING IRRIGATION WELL

 READING SUPPLEMENTAL WELL

 END PROCESSING AG STRESS PERIOD DATA OPTIONS
 
 SOLVING FOR HEAD 
                                                   Max.-Head-Change                         Max.-Flux-Residual
  Residual-Control   Outer-Iter.   Inner-Iter.     Column Row Layer    Maximum-Head-Change  Column Row Layer    Maximum-Flux-Residual          L2-NORM 
          0                 1           2             5    8     1       0.2194551022E-01       5    8    1         0.1189515338E+01      0.2682821104E+01
          0                 2           2             4    7     1      -0.3245626846E+00       5    8    1        -0.1746337042E+02      0.4273883674E+02
          0                 3           2             4    7     1       0.2210097369E-01       5    8    1         0.1232847996E+01      0.2995941194E+01
          0                 4           2             4    7     1      -0.8794212105E-03       5    8    1        -0.5040760478E-01      0.1225761431E+00
          0                 5           1             4    7     1       0.1084364043E-04       5    8    1         0.6377262130E-03      0.1580877557E-02

    ------------------------------------------------
       NWT REQUIRED            5 OUTER ITERATIONS 
       AND A TOTAL OF          9 INNER ITERATIONS.
    ------------------------------------------------

 OUTPUT CONTROL FOR STRESS PERIOD   20   TIME STEP    1
    PRINT BUDGET
    SAVE BUDGET
    SAVE BUDGET
    SAVE HEAD FOR ALL LAYERS
 UBDSV1 SAVING "         STORAGE" ON UNIT 102 AT TIME STEP  1, STRESS PERIOD  20
 UBDSV2 SAVING "   CONSTANT HEAD" ON UNIT 102 AT TIME STEP  1, STRESS PERIOD  20
 UBDSV1 SAVING "FLOW RIGHT FACE " ON UNIT 102 AT TIME STEP  1, STRESS PERIOD  20
 UBDSV1 SAVING "FLOW FRONT FACE " ON UNIT 102 AT TIME STEP  1, STRESS PERIOD  20

  HEAD DEP BOUNDS   PERIOD   20   STEP     1
 BOUNDARY      1   LAYER   1   ROW    13   COL     1   RATE   -0.288157    
 BOUNDARY      2   LAYER   1   ROW    14   COL     9   RATE    0.288259    



 STREAM LISTING     PERIOD     20   STEP        1

 LAYER ROW COL. STREAM  RCH.  FLOW INTO     FLOW TO   FLOW OUT OF   OVRLND.     DIRECT     STREAM       STREAM     STREAM     STREAM   STREAMBED  STREAMBED
                SEG.NO.  NO.  STRM. RCH.    AQUIFER    STRM. RCH.    RUNOFF     PRECIP       ET          HEAD       DEPTH      WIDTH   CONDCTNC.   GRADIENT

   1    1    1     1     1    2.0250E+01  2.2212E-01   2.0028E+01  0.000E+00  0.000E+00  0.000E+00  1.09415E+03  1.102E+00  1.203E+01  5.414E-02  1.367E+00
   1    2    2     1     2    2.0028E+01  3.4298E-01   1.9685E+01  0.000E+00  0.000E+00  0.000E+00  1.08916E+03  1.098E+00  1.196E+01  8.370E-02  1.366E+00
   1    3    3     1     3    1.9685E+01  2.9127E-01   1.9394E+01  0.000E+00  0.000E+00  0.000E+00  1.08351E+03  1.093E+00  1.186E+01  7.117E-02  1.364E+00
   1    3    4     1     4    1.9394E+01  2.6721E-01   1.9127E+01  0.000E+00  0.000E+00  0.000E+00  1.07850E+03  1.088E+00  1.178E+01  6.536E-02  1.363E+00
   1    4    5     2     1    1.7127E+01  3.0866E-01   1.6818E+01  0.000E+00  0.000E+00  0.000E+00  1.07289E+03  9.572E-01  1.200E+01  7.800E-02  1.319E+00
   1    5    6     2     2    1.6818E+01  2.3687E-01   1.6581E+01  0.000E+00  0.000E+00  0.000E+00  1.06746E+03  9.479E-01  1.200E+01  6.000E-02  1.316E+00
   1    6    6     2     3    1.6581E+01  2.3639E-01   1.6345E+01  0.000E+00  0.000E+00  0.000E+00  1.06273E+03  9.398E-01  1.200E+01  6.000E-02  1.313E+00
   1    7    6     2     4    1.6345E+01  2.3590E-01   1.6109E+01  0.000E+00  0.000E+00  0.000E+00  1.05801E+03  9.317E-01  1.200E+01  6.000E-02  1.311E+00
   1    8    6     2     5    1.6109E+01  2.3541E-01   1.5873E+01  0.000E+00  0.000E+00  0.000E+00  1.05328E+03  9.236E-01  1.200E+01  6.000E-02  1.308E+00
   1    3    5     3     1    2.0000E+00  2.8252E-01   1.7175E+00  0.000E+00  0.000E+00  0.000E+00  1.07555E+03  1.909E+00  9.636E+00  7.227E-02  1.955E+00
   1    3    6     3     2    1.7175E+00  2.4905E-01   1.4684E+00  0.000E+00  0.000E+00  0.000E+00  1.07264E+03  1.727E+00  8.909E+00  6.682E-02  1.864E+00
   1    3    7     3     3    1.4684E+00  1.9718E-01   1.2712E+00  0.000E+00  0.000E+00  0.000E+00  1.06987E+03  1.555E+00  8.218E+00  5.547E-02  1.777E+00
   1    4    8     3     4    1.2712E+00  2.2567E-01   1.0456E+00  0.000E+00  0.000E+00  0.000E+00  1.06682E+03  1.364E+00  7.455E+00  6.709E-02  1.682E+00
   1    5    8     3     5    1.0456E+00  1.5790E-01   8.8768E-01  0.000E+00  0.000E+00  0.000E+00  1.06362E+03  1.164E+00  6.655E+00  4.991E-02  1.582E+00
   1    6    8     3     6    8.8768E-01  5.5980E-02   8.3170E-01  0.000E+00  0.000E+00  0.000E+00  1.06158E+03  1.036E+00  6.145E+00  1.844E-02  1.518E+00
   1    5   10     4     1    1.0000E+01  9.0919E-02   9.9091E+00  0.000E+00  0.000E+00  0.000E+00  1.07836E+03  6.368E-01  1.000E+01  2.500E-02  1.212E+00
   1    5    9     4     2    9.9091E+00  1.8158E-01   9.7275E+00  0.000E+00  0.000E+00  0.000E+00  1.07154E+03  6.315E-01  1.000E+01  5.000E-02  1.211E+00
   1    6    8     4     3    9.7275E+00  1.2689E-01   9.6006E+00  0.000E+00  0.000E+00  0.000E+00  1.06381E+03  6.256E-01  1.000E+01  3.500E-02  1.209E+00
   1    6    8     5     1    1.0432E+01  2.2686E-01   1.0205E+01  0.000E+00  0.000E+00  0.000E+00  1.05868E+03  6.790E-01  1.542E+01  6.166E-02  1.226E+00
   1    7    7     5     2    1.0205E+01  2.7894E-01   9.9265E+00  0.000E+00  0.000E+00  0.000E+00  1.05417E+03  6.732E-01  1.519E+01  7.594E-02  1.224E+00
   1    8    7     5     3    9.9265E+00  1.9221E-01   9.7343E+00  0.000E+00  0.000E+00  0.000E+00  1.04992E+03  6.676E-01  1.497E+01  5.241E-02  1.223E+00
   1    8    6     5     4    9.7343E+00  1.3577E-01   9.5985E+00  0.000E+00  0.000E+00  0.000E+00  1.04691E+03  6.637E-01  1.482E+01  3.706E-02  1.221E+00
   1    9    6     6     1    9.5985E+00  2.2097E-01   9.3776E+00  0.000E+00  0.000E+00  0.000E+00  1.04341E+03  6.828E-01  1.200E+01  6.000E-02  1.228E+00
   1   10    7     6     2    9.3776E+00  2.2039E-01   9.1572E+00  0.000E+00  0.000E+00  0.000E+00  1.03885E+03  6.732E-01  1.200E+01  6.000E-02  1.224E+00
   1   11    7     6     3    9.1572E+00  2.1981E-01   8.9374E+00  0.000E+00  0.000E+00  0.000E+00  1.03430E+03  6.636E-01  1.200E+01  6.000E-02  1.221E+00
   1   12    7     6     4    8.9374E+00  2.1923E-01   8.7181E+00  0.000E+00  0.000E+00  0.000E+00  1.02974E+03  6.539E-01  1.200E+01  6.000E-02  1.218E+00
   1   13    7     6     5    8.7181E+00 -4.5202E-02   8.7633E+00  0.000E+00  0.000E+00  0.000E+00  1.02656E+03  6.500E-01  1.200E+01  2.400E-01 -6.278E-02
   1   14    9     7     1    1.5000E+02  1.3725E+00   1.4863E+02  0.000E+00  0.000E+00  0.000E+00  1.03987E+03  2.288E+00  5.529E+01  5.593E-01  8.180E-01
   1   13    8     7     2    1.4863E+02  1.9405E+00   1.4669E+02  0.000E+00  0.000E+00  0.000E+00  1.03478E+03  2.279E+00  5.525E+01  6.147E-01  1.052E+00
   1   13    7     7     3    1.4669E+02  1.6423E+00   1.4504E+02  0.000E+00  0.000E+00  0.000E+00  1.02969E+03  2.269E+00  5.521E+01  5.584E-01  9.804E-01
   1   13    6     8     1    1.5381E+02  9.9626E-01   1.5281E+02  0.000E+00  0.000E+00  0.000E+00  1.02471E+03  2.840E+00  4.118E+01  4.196E-01  7.914E-01
   1   13    5     8     2    1.5281E+02  2.5910E-01   1.5255E+02  0.000E+00  0.000E+00  0.000E+00  1.01846E+03  2.836E+00  4.112E+01  4.190E-01  2.061E-01
   1   13    4     8     3    1.5255E+02 -2.2424E+00   1.5479E+02  0.000E+00  0.000E+00  0.000E+00  1.01222E+03  2.843E+00  4.122E+01  4.200E+00 -1.780E-01
   1   13    3     8     4    1.5479E+02 -3.6200E+00   1.5841E+02  0.000E+00  0.000E+00  0.000E+00  1.00599E+03  2.863E+00  4.151E+01  4.230E+00 -2.853E-01
   1   13    2     8     5    1.5841E+02 -2.7112E+00   1.6113E+02  0.000E+00  0.000E+00  0.000E+00  9.99759E+02  2.884E+00  4.182E+01  4.262E+00 -2.121E-01
   1   13    1     8     6    1.6113E+02 -2.0768E+00   1.6320E+02  0.000E+00  0.000E+00  0.000E+00  9.94775E+02  2.900E+00  4.206E+01  2.571E+00 -2.692E-01
   1    8    6     9     1    1.5873E+01  0.0000E+00   1.5873E+01  0.000E+00  0.000E+00  0.000E+00  1.08174E+03  2.990E+00  4.000E+00  0.000E+00  1.997E+00
   1    8    5     9     2    1.5873E+01  0.0000E+00   1.5873E+01  0.000E+00  0.000E+00  0.000E+00  1.08124E+03  2.990E+00  4.000E+00  0.000E+00  1.997E+00



 UBDSV3 SAVING "           GW ET" ON UNIT  61 AT TIME STEP  1, STRESS PERIOD  20
 UBDSV3 SAVING "    UZF RECHARGE" ON UNIT  61 AT TIME STEP  1, STRESS PERIOD  20
 UBDSV3 SAVING " SURFACE LEAKAGE" ON UNIT  61 AT TIME STEP  1, STRESS PERIOD  20
 UBDSV3 SAVING "       HORT+DUNN" ON UNIT  61 AT TIME STEP  1, STRESS PERIOD  20
 UBDSV3 SAVING "  STORAGE CHANGE" ON UNIT  61 AT TIME STEP  1, STRESS PERIOD  20


UNSATURATED ZONE PACKAGE VOLUMETRIC BUDGET FOR  TIME STEP     1 STRESS PERIOD   20
  ------------------------------------------------------------------------------



     CUMULATIVE VOLUMES      L**3       RATES FOR THIS TIME STEP      L**3/T
     ------------------                 ------------------------

           IN:                                      IN:
           ---                                      ---
        INFILTRATION =   630844778.0818          INFILTRATION =         120.7878

          OUT:                                     OUT:
          ----                                     ----
              UZF ET =   537960102.1573                UZF ET =          60.8175
        UZF RECHARGE =       73224.0000          UZF RECHARGE =       0.0000E+00

            IN - OUT =    92811451.9244              IN - OUT =          59.9703

          STORAGE:                                 STORAGE:
          --------                                 --------
      STORAGE CHANGE =    92811945.1410        STORAGE CHANGE =          59.9703

 PERCENT DISCREPANCY IS DIFFERENCE BETWEEN IN-OUT MINUS CHANGE IN STORAGE
 DIVIDED BY THE AVERAGE OF IN AND OUT TIMES 100

 PERCENT DISCREPANCY =          -0.00     PERCENT DISCREPANCY =           0.00






 

            AG WELLS      PERIOD   20   STEP   1
 AG WELL      1   LAYER   1   ROW     6   COL     4   RATE    -17.3444    
 AG WELL      2   LAYER   1   ROW     6   COL     5   RATE    -17.3444    
 AG WELL      3   LAYER   1   ROW     7   COL     4   RATE    -17.3444    
 AG WELL      4   LAYER   1   ROW     7   COL     5   RATE    -17.3444    
 AG WELL      5   LAYER   1   ROW     8   COL     4   RATE    -17.3444    
 AG WELL      6   LAYER   1   ROW     8   COL     5   RATE    -17.3444    
 
 

   DIVERSION SEGMENTS     PERIOD   20   STEP   1
 SEGMENT      9   RATE     15.8735    
 
 

        SW IRRIGATION     PERIOD   20   STEP   1
 SEGMENT      9   ROW     6   COL     4   RATE     2.64564    
 SEGMENT      9   ROW     6   COL     5   RATE     2.64564    
 SEGMENT      9   ROW     7   COL     4   RATE     2.64564    
 SEGMENT      9   ROW     7   COL     5   RATE     2.64564    
 SEGMENT      9   ROW     8   COL     4   RATE     2.64564    
 SEGMENT      9   ROW     8   COL     5   RATE     2.64564    
 
 

        GW IRRIGATION     PERIOD   20   STEP   1
 AG WELL      1   ROW     6   COL     4   RATE     17.3444    
 AG WELL      2   ROW     6   COL     5   RATE     17.3444    
 AG WELL      3   ROW     7   COL     4   RATE     17.3444    
 AG WELL      4   ROW     7   COL     5   RATE     17.3444    
 AG WELL      5   ROW     8   COL     4   RATE     17.3444    
 AG WELL      6   ROW     8   COL     5   RATE     17.3444    
 
1
  VOLUMETRIC BUDGET FOR AGRICULTURAL FIELDS AT  END OF TIME STEP    1, STRESS PERIOD  20
  ------------------------------------------------------------------------------

     CUMULATIVE VOLUMES      L**3       RATES FOR THIS TIME STEP      L**3/T
     ------------------                 ------------------------

           IN:                                      IN:
           ---                                      ---
               AG WELLS  =   346134752.0000                 AG WELLS  =         104.0665
      DIVERSION SEGMENTS =   244439680.0000        DIVERSION SEGMENTS =          15.8735
           GW IRRIGATION =           0.0000             GW IRRIGATION =           0.0000
           SW IRRIGATION =           0.0000             SW IRRIGATION =           0.0000
        SYSTEM LOSSES GW =           0.0000          SYSTEM LOSSES GW =           0.0000
        SYSTEM LOSSES SW =           0.0000          SYSTEM LOSSES SW =           0.0000

                TOTAL IN =   590574464.0000                  TOTAL IN =         119.9400

          OUT:                                     OUT:
          ----                                     ----
               AG WELLS  =           0.0000                 AG WELLS  =           0.0000
      DIVERSION SEGMENTS =           0.0000        DIVERSION SEGMENTS =           0.0000
           GW IRRIGATION =   346134752.0000             GW IRRIGATION =         104.0665
           SW IRRIGATION =   244444688.0000             SW IRRIGATION =          15.8738
        SYSTEM LOSSES GW =           0.0000          SYSTEM LOSSES GW =           0.0000
        SYSTEM LOSSES SW =           0.0000          SYSTEM LOSSES SW =           0.0000

               TOTAL OUT =   590579456.0000                 TOTAL OUT =         119.9403

                IN - OUT =       -4992.0000                  IN - OUT =      -3.1281E-04

     PERCENT DISCREPANCY =          -0.00         PERCENT DISCREPANCY =          -0.00




 HEAD WILL BE SAVED ON UNIT   62 AT END OF TIME STEP    1, STRESS PERIOD   20
1
  VOLUMETRIC BUDGET FOR ENTIRE MODEL AT END OF TIME STEP    1, STRESS PERIOD  20
  ------------------------------------------------------------------------------

     CUMULATIVE VOLUMES      L**3       RATES FOR THIS TIME STEP      L**3/T
     ------------------                 ------------------------

           IN:                                      IN:
           ---                                      ---
             STORAGE     =   521446240.0000               STORAGE     =         103.1553
       CONSTANT HEAD     =           0.0000         CONSTANT HEAD     =           0.0000
     HEAD DEP BOUNDS     =    13684252.0000       HEAD DEP BOUNDS     =           0.2883
      STREAM LEAKAGE     =   561123392.0000        STREAM LEAKAGE     =          11.8694
        UZF RECHARGE     =       73223.9531          UZF RECHARGE     =           0.0000
               GW ET     =           0.0000                 GW ET     =           0.0000
     SURFACE LEAKAGE     =           0.0000       SURFACE LEAKAGE     =           0.0000
           AG WELLS      =           0.0000             AG WELLS      =           0.0000

                TOTAL IN =  1096327168.0000                  TOTAL IN =         115.3130

          OUT:                                     OUT:
          ----                                     ----
             STORAGE     =   251208064.0000               STORAGE     =           0.2626
       CONSTANT HEAD     =           0.0000         CONSTANT HEAD     =           0.0000
     HEAD DEP BOUNDS     =    13699710.0000       HEAD DEP BOUNDS     =           0.2882
      STREAM LEAKAGE     =   485293760.0000        STREAM LEAKAGE     =          10.6956
        UZF RECHARGE     =           0.0000          UZF RECHARGE     =           0.0000
               GW ET     =           0.0000                 GW ET     =           0.0000
     SURFACE LEAKAGE     =           0.0000       SURFACE LEAKAGE     =           0.0000
           AG WELLS      =   346134752.0000             AG WELLS      =         104.0665

               TOTAL OUT =  1096336256.0000                 TOTAL OUT =         115.3129

                IN - OUT =       -9088.0000                  IN - OUT =       6.1035E-05

     PERCENT DISCREPANCY =          -0.00         PERCENT DISCREPANCY =           0.00






         TIME SUMMARY AT END OF TIME STEP    1 IN STRESS PERIOD   20
                    SECONDS     MINUTES      HOURS       DAYS        YEARS
                    -----------------------------------------------------------
   TIME STEP LENGTH  87667.      1461.1      24.352      1.0147     2.77799E-03
 STRESS PERIOD TIME  87667.      1461.1      24.352      1.0147     2.77799E-03
         TOTAL TIME 4.75142E+07 7.91903E+05  13198.      549.93      1.5056    
1
 
 SOLVING FOR HEAD 
                                                   Max.-Head-Change                         Max.-Flux-Residual
  Residual-Control   Outer-Iter.   Inner-Iter.     Column Row Layer    Maximum-Head-Change  Column Row Layer    Maximum-Flux-Residual          L2-NORM 
          0                 1           2             5    8     1       0.3025540314E-01       5    8    1         0.1649079224E+01      0.3610243971E+01
          0                 2           2             4    7     1      -0.1404417732E+00       5    8    1        -0.7617414986E+01      0.1858882004E+02
          0                 3           2             4    7     1       0.9563462817E-02       5    8    1         0.5331546177E+00      0.1301524807E+01
          0                 4           2             4    7     1      -0.3805396162E-03       5    8    1        -0.2180032797E-01      0.5325817265E-01
          0                 5           1             4    7     1       0.4692217910E-05       5    8    1         0.2758867183E-03      0.6816699861E-03

    ------------------------------------------------
       NWT REQUIRED            5 OUTER ITERATIONS 
       AND A TOTAL OF          9 INNER ITERATIONS.
    ------------------------------------------------

 NO OUTPUT CONTROL FOR STRESS PERIOD   20   TIME STEP    2
 
 SOLVING FOR HEAD 
                                                   Max.-Head-Change                         Max.-Flux-Residual
  Residual-Control   Outer-Iter.   Inner-Iter.     Column Row Layer    Maximum-Head-Change  Column Row Layer    Maximum-Flux-Residual          L2-NORM 
          0                 1           2             5    8     1       0.3289275590E-01       5    8    1         0.1793919047E+01      0.3924549702E+01
          0                 2           2             4    7     1      -0.3243835394E+00       5    8    1        -0.1749956460E+02      0.4277794335E+02
          0                 3           2             4    7     1       0.2208874778E-01       5    8    1         0.1224749882E+01      0.2994286485E+01
          0                 4           2             4    7     1      -0.8789346685E-03       5    8    1        -0.5007389221E-01      0.1224677928E+00
          0                 5           1             4    7     1       0.1083764114E-04       5    6    1         0.6334203563E-03      0.1557963023E-02

    ------------------------------------------------
       NWT REQUIRED            5 OUTER ITERATIONS 
       AND A TOTAL OF          9 INNER ITERATIONS.
    ------------------------------------------------

 NO OUTPUT CONTROL FOR STRESS PERIOD   20   TIME STEP    3
 
 SOLVING FOR HEAD 
                                                   Max.-Head-Change                         Max.-Flux-Residual
  Residual-Control   Outer-Iter.   Inner-Iter.     Column Row Layer    Maximum-Head-Change  Column Row Layer    Maximum-Flux-Residual          L2-NORM 
          0                 1           2             5    8     1       0.4070975174E-01       5    8    1         0.2224481471E+01      0.4823621180E+01
          0                 2           2             4    7     1      -0.1408164203E+00       5    8    1        -0.7679755400E+01      0.1869639519E+02
          0                 3           2             4    7     1       0.9588979469E-02       5    8    1         0.5375423602E+00      0.1309075680E+01
          0                 4           2             4    7     1      -0.3815549247E-03       5    8    1        -0.2198211123E-01      0.5356742234E-01
          0                 5           1             4    7     1       0.4704737136E-05       5    8    1         0.2783483121E-03      0.6849417897E-03

    ------------------------------------------------
       NWT REQUIRED            5 OUTER ITERATIONS 
       AND A TOTAL OF          9 INNER ITERATIONS.
    ------------------------------------------------

 NO OUTPUT CONTROL FOR STRESS PERIOD   20   TIME STEP    4
 
 SOLVING FOR HEAD 
                                                   Max.-Head-Change                         Max.-Flux-Residual
  Residual-Control   Outer-Iter.   Inner-Iter.     Column Row Layer    Maximum-Head-Change  Column Row Layer    Maximum-Flux-Residual          L2-NORM 
          0                 1           2             5    8     1       0.4277497459E-01       5    8    1         0.2337335012E+01      0.5088231306E+01
          0                 2           2             4    7     1      -0.3246818268E+00       5    8    1        -0.1755389031E+02      0.4286997605E+02
          0                 3           2             4    7     1       0.2210906992E-01       5    8    1         0.1228574872E+01      0.3000732244E+01
          0                 4           2             4    7     1      -0.8797432559E-03       5    8    1        -0.5023249498E-01      0.1227286453E+00
          0                 5           1             4    7     1       0.1084761158E-04       5    8    1         0.6354848229E-03      0.1560071693E-02

    ------------------------------------------------
       NWT REQUIRED            5 OUTER ITERATIONS 
       AND A TOTAL OF          9 INNER ITERATIONS.
    ------------------------------------------------

 NO OUTPUT CONTROL FOR STRESS PERIOD   20   TIME STEP    5
 
 SOLVING FOR HEAD 
                                                   Max.-Head-Change                         Max.-Flux-Residual
  Residual-Control   Outer-Iter.   Inner-Iter.     Column Row Layer    Maximum-Head-Change  Column Row Layer    Maximum-Flux-Residual          L2-NORM 
          0                 1           2             5    8     1       0.5005705141E-01       5    8    1         0.2738013277E+01      0.5944280954E+01
          0                 2           2             4    7     1      -0.1411251012E+00       5    8    1        -0.7731111150E+01      0.1878608899E+02
          0                 3           2             4    7     1       0.9610003490E-02       5    8    1         0.5411580316E+00      0.1315387015E+01
          0                 4           2             4    7     1      -0.3823914699E-03       5    8    1        -0.2213200888E-01      0.5382823213E-01
          0                 5           1             4    7     1       0.4715051687E-05       5    8    1         0.2803849168E-03      0.6880713659E-03

    ------------------------------------------------
       NWT REQUIRED            5 OUTER ITERATIONS 
       AND A TOTAL OF          9 INNER ITERATIONS.
    ------------------------------------------------

 NO OUTPUT CONTROL FOR STRESS PERIOD   20   TIME STEP    6
 
 SOLVING FOR HEAD 
                                                   Max.-Head-Change                         Max.-Flux-Residual
  Residual-Control   Outer-Iter.   Inner-Iter.     Column Row Layer    Maximum-Head-Change  Column Row Layer    Maximum-Flux-Residual          L2-NORM 
          0                 1           2             5    8     1       0.5162436416E-01       5    8    1         0.2823070472E+01      0.6161475317E+01
          0                 2           2             4    7     1      -0.3250014569E+00       5    8    1        -0.1760246309E+02      0.4295608961E+02
          0                 3           2             4    7     1       0.2213084379E-01       5    8    1         0.1231994212E+01      0.3006769513E+01
          0                 4           2             4    7     1      -0.8806096165E-03       5    8    1        -0.5037421663E-01      0.1229740669E+00
          0                 5           1             4    7     1       0.1085829399E-04       5    8    1         0.6374079278E-03      0.1562289055E-02

    ------------------------------------------------
       NWT REQUIRED            5 OUTER ITERATIONS 
       AND A TOTAL OF          9 INNER ITERATIONS.
    ------------------------------------------------

 NO OUTPUT CONTROL FOR STRESS PERIOD   20   TIME STEP    7
 
 SOLVING FOR HEAD 
                                                   Max.-Head-Change                         Max.-Flux-Residual
  Residual-Control   Outer-Iter.   Inner-Iter.     Column Row Layer    Maximum-Head-Change  Column Row Layer    Maximum-Flux-Residual          L2-NORM 
          0                 1           2             5    8     1       0.5844263488E-01       5    8    1         0.3197873416E+01      0.6974674388E+01
          0                 2           2             5    7     1      -0.1414876284E+00       5    8    1        -0.7777096297E+01      0.1887010984E+02
          0                 3           2             5    7     1       0.9634692980E-02       5    8    1         0.5443913230E+00      0.1321275048E+01
          0                 4           2             5    7     1      -0.3833738748E-03       5    8    1        -0.2226564108E-01      0.5406983086E-01
          0                 5           1             5    7     1       0.4727171580E-05       5    8    1         0.2821728838E-03      0.6910601373E-03

    ------------------------------------------------
       NWT REQUIRED            5 OUTER ITERATIONS 
       AND A TOTAL OF          9 INNER ITERATIONS.
    ------------------------------------------------

 NO OUTPUT CONTROL FOR STRESS PERIOD   20   TIME STEP    8
 
 SOLVING FOR HEAD 
                                                   Max.-Head-Change                         Max.-Flux-Residual
  Residual-Control   Outer-Iter.   Inner-Iter.     Column Row Layer    Maximum-Head-Change  Column Row Layer    Maximum-Flux-Residual          L2-NORM 
          0                 1           2             5    8     1       0.5957762702E-01       5    8    1         0.3258829746E+01      0.7149039587E+01
          0                 2           2             4    7     1      -0.3253376750E+00       5    8    1        -0.1764603817E+02      0.4303675968E+02
          0                 3           2             4    7     1       0.2215374581E-01       5    8    1         0.1235061192E+01      0.3012429611E+01
          0                 4           2             4    7     1      -0.8815208745E-03       5    8    1        -0.5050127883E-01      0.1232050290E+00
          0                 5           1             4    7     1       0.1086953064E-04       5    8    1         0.6391284280E-03      0.1564562821E-02

    ------------------------------------------------
       NWT REQUIRED            5 OUTER ITERATIONS 
       AND A TOTAL OF          9 INNER ITERATIONS.
    ------------------------------------------------

 NO OUTPUT CONTROL FOR STRESS PERIOD   20   TIME STEP    9
 
 SOLVING FOR HEAD 
                                                   Max.-Head-Change                         Max.-Flux-Residual
  Residual-Control   Outer-Iter.   Inner-Iter.     Column Row Layer    Maximum-Head-Change  Column Row Layer    Maximum-Flux-Residual          L2-NORM 
          0                 1           2             5    8     1       0.6599260467E-01       5    8    1         0.3611164996E+01      0.7922437539E+01
          0                 2           2             5    7     1      -0.1420267719E+00       5    8    1        -0.7818424532E+01      0.1894892227E+02
          0                 3           2             5    7     1       0.9671408350E-02       5    8    1         0.5472845167E+00      0.1326779885E+01
          0                 4           2             5    7     1      -0.3848348061E-03       5    8    1        -0.2238399313E-01      0.5429406449E-01
          0                 5           1             5    7     1       0.4745185694E-05       5    8    1         0.2836741519E-03      0.6938320407E-03

    ------------------------------------------------
       NWT REQUIRED            5 OUTER ITERATIONS 
       AND A TOTAL OF          9 INNER ITERATIONS.
    ------------------------------------------------

 NO OUTPUT CONTROL FOR STRESS PERIOD   20   TIME STEP   10
 
 SOLVING FOR HEAD 
                                                   Max.-Head-Change                         Max.-Flux-Residual
  Residual-Control   Outer-Iter.   Inner-Iter.     Column Row Layer    Maximum-Head-Change  Column Row Layer    Maximum-Flux-Residual          L2-NORM 
          0                 1           2             5    8     1       0.6675104893E-01       5    8    1         0.3651159266E+01      0.8058622215E+01
          0                 2           2             4    7     1      -0.3256865286E+00       5    8    1        -0.1768527022E+02      0.4311244931E+02
          0                 3           2             4    7     1       0.2217750698E-01       5    8    1         0.1237821999E+01      0.3017740784E+01
          0                 4           2             4    7     1      -0.8824663252E-03       5    8    1        -0.5061560613E-01      0.1234219485E+00
          0                 5           1             4    7     1       0.1088118825E-04       5    8    1         0.6406731002E-03      0.1566759855E-02

    ------------------------------------------------
       NWT REQUIRED            5 OUTER ITERATIONS 
       AND A TOTAL OF          9 INNER ITERATIONS.
    ------------------------------------------------

 NO OUTPUT CONTROL FOR STRESS PERIOD   20   TIME STEP   11
 
 SOLVING FOR HEAD 
                                                   Max.-Head-Change                         Max.-Flux-Residual
  Residual-Control   Outer-Iter.   Inner-Iter.     Column Row Layer    Maximum-Head-Change  Column Row Layer    Maximum-Flux-Residual          L2-NORM 
          0                 1           2             5    8     1       0.7281413114E-01       5    8    1         0.3983917404E+01      0.8795796688E+01
          0                 2           2             5    6     1      -0.1425744136E+00       5    8    1        -0.7855698823E+01      0.1902294778E+02
          0                 3           2             5    6     1       0.9708705482E-02       5    8    1         0.5498937349E+00      0.1331944095E+01
          0                 4           2             5    6     1      -0.3863188713E-03       5    8    1        -0.2249071022E-01      0.5450336104E-01
          0                 5           1             5    6     1       0.4763471108E-05       5    8    1         0.2850265730E-03      0.6960444558E-03

    ------------------------------------------------
       NWT REQUIRED            5 OUTER ITERATIONS 
       AND A TOTAL OF          9 INNER ITERATIONS.
    ------------------------------------------------

 NO OUTPUT CONTROL FOR STRESS PERIOD   20   TIME STEP   12
 
 SOLVING FOR HEAD 
                                                   Max.-Head-Change                         Max.-Flux-Residual
  Residual-Control   Outer-Iter.   Inner-Iter.     Column Row Layer    Maximum-Head-Change  Column Row Layer    Maximum-Flux-Residual          L2-NORM 
          0                 1           2             5    8     1       0.7324388591E-01       5    8    1         0.4005639372E+01      0.8898046274E+01
          0                 2           2             4    7     1      -0.3260446133E+00       5    8    1        -0.1772071732E+02      0.4318357704E+02
          0                 3           2             4    7     1       0.2220189561E-01       5    8    1         0.1240315996E+01      0.3022736587E+01
          0                 4           2             4    7     1      -0.8834367481E-03       5    8    1        -0.5071883823E-01      0.1236269000E+00
          0                 5           1             4    7     1       0.1089315412E-04       5    8    1         0.6420647705E-03      0.1569025214E-02

    ------------------------------------------------
       NWT REQUIRED            5 OUTER ITERATIONS 
       AND A TOTAL OF          9 INNER ITERATIONS.
    ------------------------------------------------

 NO OUTPUT CONTROL FOR STRESS PERIOD   20   TIME STEP   13
 
 SOLVING FOR HEAD 
                                                   Max.-Head-Change                         Max.-Flux-Residual
  Residual-Control   Outer-Iter.   Inner-Iter.     Column Row Layer    Maximum-Head-Change  Column Row Layer    Maximum-Flux-Residual          L2-NORM 
          0                 1           2             5    8     1       0.7899935972E-01       5    8    1         0.4321308361E+01      0.9602487019E+01
          0                 2           2             5    6     1      -0.1431704360E+00       5    8    1        -0.7889436963E+01      0.1909257125E+02
          0                 3           2             5    6     1       0.9749292904E-02       5    8    1         0.5522554303E+00      0.1336806899E+01
          0                 4           2             5    6     1      -0.3879338802E-03       5    8    1        -0.2258730360E-01      0.5470134917E-01
          0                 5           1             5    6     1       0.4783384881E-05       5    8    1         0.2862507313E-03      0.6983757710E-03

    ------------------------------------------------
       NWT REQUIRED            5 OUTER ITERATIONS 
       AND A TOTAL OF          9 INNER ITERATIONS.
    ------------------------------------------------

 NO OUTPUT CONTROL FOR STRESS PERIOD   20   TIME STEP   14
 
 SOLVING FOR HEAD 
                                                   Max.-Head-Change                         Max.-Flux-Residual
  Residual-Control   Outer-Iter.   Inner-Iter.     Column Row Layer    Maximum-Head-Change  Column Row Layer    Maximum-Flux-Residual          L2-NORM 
          0                 1           2             5    8     1       0.7914120879E-01       5    8    1         0.4327047871E+01      0.9674574525E+01
          0                 2           2             4    7     1      -0.3264089208E+00       5    8    1        -0.1775285725E+02      0.4325051888E+02
          0                 3           2             4    7     1       0.2222670700E-01       5    8    1         0.1242576885E+01      0.3027439822E+01
          0                 4           2             4    7     1      -0.8844239986E-03       5    8    1        -0.5081237889E-01      0.1238201610E+00
          0                 5           1             4    7     1       0.1090532756E-04       5    8    1         0.6433229501E-03      0.1571257200E-02

    ------------------------------------------------
       NWT REQUIRED            5 OUTER ITERATIONS 
       AND A TOTAL OF          9 INNER ITERATIONS.
    ------------------------------------------------

 NO OUTPUT CONTROL FOR STRESS PERIOD   20   TIME STEP   15
 
 SOLVING FOR HEAD 
                                                   Max.-Head-Change                         Max.-Flux-Residual
  Residual-Control   Outer-Iter.   Inner-Iter.     Column Row Layer    Maximum-Head-Change  Column Row Layer    Maximum-Flux-Residual          L2-NORM 
          0                 1           2             5    8     1       0.8462688637E-01       5    8    1         0.4627748803E+01      0.1034947436E+02
          0                 2           2             5    6     1      -0.1437157767E+00       5    8    1        -0.7920080060E+01      0.1915814487E+02
          0                 3           2             5    6     1       0.9786429134E-02       5    8    1         0.5544004785E+00      0.1341386986E+01
          0                 4           2             5    6     1      -0.3894115627E-03       5    8    1        -0.2267503604E-01      0.5488799416E-01
          0                 5           1             5    6     1       0.4801605214E-05       5    8    1         0.2873625594E-03      0.7006288009E-03

    ------------------------------------------------
       NWT REQUIRED            5 OUTER ITERATIONS 
       AND A TOTAL OF          9 INNER ITERATIONS.
    ------------------------------------------------

 NO OUTPUT CONTROL FOR STRESS PERIOD   20   TIME STEP   16
 
 SOLVING FOR HEAD 
                                                   Max.-Head-Change                         Max.-Flux-Residual
  Residual-Control   Outer-Iter.   Inner-Iter.     Column Row Layer    Maximum-Head-Change  Column Row Layer    Maximum-Flux-Residual          L2-NORM 
          0                 1           2             5    8     1       0.8451596165E-01       5    8    1         0.4619475674E+01      0.1039471946E+02
          0                 2           2             4    7     1      -0.3267768747E+00       5    8    1        -0.1778209912E+02      0.4331361571E+02
          0                 3           2             4    7     1       0.2225176583E-01       5    8    1         0.1244633518E+01      0.3031873554E+01
          0                 4           2             4    7     1      -0.8854210992E-03       5    8    1        -0.5089742924E-01      0.1240026174E+00
          0                 5           1             4    7     1       0.1091762220E-04       5    8    1         0.6444642559E-03      0.1573419558E-02

    ------------------------------------------------
       NWT REQUIRED            5 OUTER ITERATIONS 
       AND A TOTAL OF          9 INNER ITERATIONS.
    ------------------------------------------------

 NO OUTPUT CONTROL FOR STRESS PERIOD   20   TIME STEP   17
 
 SOLVING FOR HEAD 
                                                   Max.-Head-Change                         Max.-Flux-Residual
  Residual-Control   Outer-Iter.   Inner-Iter.     Column Row Layer    Maximum-Head-Change  Column Row Layer    Maximum-Flux-Residual          L2-NORM 
          0                 1           2             5    8     1       0.8976430894E-01       5    8    1         0.4907028660E+01      0.1104297098E+02
          0                 2           2             5    6     1      -0.1442161628E+00       5    8    1        -0.7948007116E+01      0.1921998871E+02
          0                 3           2             5    6     1       0.9820504152E-02       5    8    1         0.5563554080E+00      0.1345706431E+01
          0                 4           2             5    6     1      -0.3907674366E-03       5    8    1        -0.2275499261E-01      0.5506397882E-01
          0                 5           1             5    6     1       0.4818323428E-05       5    8    1         0.2883758498E-03      0.7027355088E-03

    ------------------------------------------------
       NWT REQUIRED            5 OUTER ITERATIONS 
       AND A TOTAL OF          9 INNER ITERATIONS.
    ------------------------------------------------

 NO OUTPUT CONTROL FOR STRESS PERIOD   20   TIME STEP   18
 
 SOLVING FOR HEAD 
                                                   Max.-Head-Change                         Max.-Flux-Residual
  Residual-Control   Outer-Iter.   Inner-Iter.     Column Row Layer    Maximum-Head-Change  Column Row Layer    Maximum-Flux-Residual          L2-NORM 
          0                 1           2             5    8     1       0.8943067623E-01       5    8    1         0.4886427780E+01      0.1106442220E+02
          0                 2           2             4    7     1      -0.3271462565E+00       5    8    1        -0.1780879344E+02      0.4337317548E+02
          0                 3           2             4    7     1       0.2227692113E-01       5    8    1         0.1246510620E+01      0.3036059213E+01
          0                 4           2             4    7     1      -0.8864220434E-03       5    8    1        -0.5097501934E-01      0.1241750563E+00
          0                 5           1             4    7     1       0.1092996399E-04       5    8    1         0.6455030436E-03      0.1575528019E-02

    ------------------------------------------------
       NWT REQUIRED            5 OUTER ITERATIONS 
       AND A TOTAL OF          9 INNER ITERATIONS.
    ------------------------------------------------

 NO OUTPUT CONTROL FOR STRESS PERIOD   20   TIME STEP   19
 
 SOLVING FOR HEAD 
                                                   Max.-Head-Change                         Max.-Flux-Residual
  Residual-Control   Outer-Iter.   Inner-Iter.     Column Row Layer    Maximum-Head-Change  Column Row Layer    Maximum-Flux-Residual          L2-NORM 
          0                 1           2             5    8     1       0.9446965817E-01       5    8    1         0.5162398285E+01      0.1168864352E+02
          0                 2           2             5    6     1      -0.1446765547E+00       5    8    1        -0.7973543172E+01      0.1927839223E+02
          0                 3           2             5    6     1       0.9851855723E-02       5    8    1         0.5581429706E+00      0.1349787588E+01
          0                 4           2             5    6     1      -0.3920149422E-03       5    8    1        -0.2282810384E-01      0.5523049209E-01
          0                 5           1             5    6     1       0.4833705866E-05       5    8    1         0.2893023996E-03      0.7048080797E-03

    ------------------------------------------------
       NWT REQUIRED            5 OUTER ITERATIONS 
       AND A TOTAL OF          9 INNER ITERATIONS.
    ------------------------------------------------

 NO OUTPUT CONTROL FOR STRESS PERIOD   20   TIME STEP   20
 
 SOLVING FOR HEAD 
                                                   Max.-Head-Change                         Max.-Flux-Residual
  Residual-Control   Outer-Iter.   Inner-Iter.     Column Row Layer    Maximum-Head-Change  Column Row Layer    Maximum-Flux-Residual          L2-NORM 
          0                 1           2             5    8     1       0.9393940613E-01       5    8    1         0.5130928816E+01      0.1168867912E+02
          0                 2           2             4    7     1      -0.3275151832E+00       5    8    1        -0.1783324268E+02      0.4342947248E+02
          0                 3           2             4    7     1       0.2230204477E-01       5    8    1         0.1248229518E+01      0.3040013843E+01
          0                 4           2             4    7     1      -0.8874217310E-03       5    8    1        -0.5104603656E-01      0.1243378567E+00
          0                 5           1             4    7     1       0.1094229089E-04       5    8    1         0.6464516191E-03      0.1577536832E-02

    ------------------------------------------------
       NWT REQUIRED            5 OUTER ITERATIONS 
       AND A TOTAL OF          9 INNER ITERATIONS.
    ------------------------------------------------

 NO OUTPUT CONTROL FOR STRESS PERIOD   20   TIME STEP   21
 
 SOLVING FOR HEAD 
                                                   Max.-Head-Change                         Max.-Flux-Residual
  Residual-Control   Outer-Iter.   Inner-Iter.     Column Row Layer    Maximum-Head-Change  Column Row Layer    Maximum-Flux-Residual          L2-NORM 
          0                 1           2             5    8     1       0.9879334319E-01       5    8    1         0.5396675887E+01      0.1229099758E+02
          0                 2           2             5    6     1      -0.1451013147E+00       5    8    1        -0.7996970054E+01      0.1933362090E+02
          0                 3           2             5    6     1       0.9880780905E-02       5    8    1         0.5597828928E+00      0.1353644783E+01
          0                 4           2             5    6     1      -0.3931658992E-03       5    8    1        -0.2289517657E-01      0.5538755993E-01
          0                 5           1             5    6     1       0.4847897809E-05       5    8    1         0.2901524210E-03      0.7066533283E-03

    ------------------------------------------------
       NWT REQUIRED            5 OUTER ITERATIONS 
       AND A TOTAL OF          9 INNER ITERATIONS.
    ------------------------------------------------

 NO OUTPUT CONTROL FOR STRESS PERIOD   20   TIME STEP   22
 
 SOLVING FOR HEAD 
                                                   Max.-Head-Change                         Max.-Flux-Residual
  Residual-Control   Outer-Iter.   Inner-Iter.     Column Row Layer    Maximum-Head-Change  Column Row Layer    Maximum-Flux-Residual          L2-NORM 
          0                 1           2             5    8     1       0.9808892831E-01       5    8    1         0.5355592536E+01      0.1227183865E+02
          0                 2           2             4    7     1      -0.3278820283E+00       5    8    1        -0.1785570821E+02      0.4348275910E+02
          0                 3           2             4    7     1       0.2232702610E-01       5    8    1         0.1249808641E+01      0.3043756325E+01
          0                 4           2             4    7     1      -0.8884157590E-03       5    8    1        -0.5111124779E-01      0.1244919744E+00
          0                 5           1             4    7     1       0.1095454766E-04       5    8    1         0.6473205285E-03      0.1579474040E-02

    ------------------------------------------------
       NWT REQUIRED            5 OUTER ITERATIONS 
       AND A TOTAL OF          9 INNER ITERATIONS.
    ------------------------------------------------

 NO OUTPUT CONTROL FOR STRESS PERIOD   20   TIME STEP   23
 
 SOLVING FOR HEAD 
                                                   Max.-Head-Change                         Max.-Flux-Residual
  Residual-Control   Outer-Iter.   Inner-Iter.     Column Row Layer    Maximum-Head-Change  Column Row Layer    Maximum-Flux-Residual          L2-NORM 
          0                 1           2             5    8     1       0.1027786467E+00       5    8    1         0.5612279165E+01      0.1285423137E+02
          0                 2           2             5    6     1      -0.1454942501E+00       5    8    1        -0.8018529534E+01      0.1938591324E+02
          0                 3           2             5    6     1       0.9907538943E-02       5    8    1         0.5612920982E+00      0.1357296935E+01
          0                 4           2             5    6     1      -0.3942306241E-03       5    8    1        -0.2295690296E-01      0.5553634012E-01
          0                 5           1             5    6     1       0.4861026620E-05       5    8    1         0.2909346845E-03      0.7084697981E-03

    ------------------------------------------------
       NWT REQUIRED            5 OUTER ITERATIONS 
       AND A TOTAL OF          9 INNER ITERATIONS.
    ------------------------------------------------

 NO OUTPUT CONTROL FOR STRESS PERIOD   20   TIME STEP   24
 
 SOLVING FOR HEAD 
                                                   Max.-Head-Change                         Max.-Flux-Residual
  Residual-Control   Outer-Iter.   Inner-Iter.     Column Row Layer    Maximum-Head-Change  Column Row Layer    Maximum-Flux-Residual          L2-NORM 
          0                 1           2             5    8     1       0.1019195900E+00       5    8    1         0.5562671018E+01      0.1281782970E+02
          0                 2           2             4    7     1      -0.3282454680E+00       5    8    1        -0.1787641524E+02      0.4353326201E+02
          0                 3           2             4    7     1       0.2235177504E-01       5    8    1         0.1251263867E+01      0.3047302897E+01
          0                 4           2             4    7     1      -0.8894005418E-03       5    8    1        -0.5117131369E-01      0.1246380147E+00
          0                 5           1             4    7     1       0.1096669041E-04       5    8    1         0.6481189316E-03      0.1581299252E-02

    ------------------------------------------------
       NWT REQUIRED            5 OUTER ITERATIONS 
       AND A TOTAL OF          9 INNER ITERATIONS.
    ------------------------------------------------

 NO OUTPUT CONTROL FOR STRESS PERIOD   20   TIME STEP   25
 
 SOLVING FOR HEAD 
                                                   Max.-Head-Change                         Max.-Flux-Residual
  Residual-Control   Outer-Iter.   Inner-Iter.     Column Row Layer    Maximum-Head-Change  Column Row Layer    Maximum-Flux-Residual          L2-NORM 
          0                 1           2             5    8     1       0.1064632177E+00       5    8    1         0.5811308025E+01      0.1338205104E+02
          0                 2           2             5    6     1      -0.1458586825E+00       5    8    1        -0.8038431606E+01      0.1943548843E+02
          0                 3           2             5    6     1       0.9932356029E-02       5    8    1         0.5626852853E+00      0.1360759248E+01
          0                 4           2             5    6     1      -0.3952181163E-03       5    8    1        -0.2301388420E-01      0.5567736068E-01
          0                 5           1             5    6     1       0.4873202297E-05       5    8    1         0.2916568169E-03      0.7100898363E-03

    ------------------------------------------------
       NWT REQUIRED            5 OUTER ITERATIONS 
       AND A TOTAL OF          9 INNER ITERATIONS.
    ------------------------------------------------

 NO OUTPUT CONTROL FOR STRESS PERIOD   20   TIME STEP   26
 
 SOLVING FOR HEAD 
                                                   Max.-Head-Change                         Max.-Flux-Residual
  Residual-Control   Outer-Iter.   Inner-Iter.     Column Row Layer    Maximum-Head-Change  Column Row Layer    Maximum-Flux-Residual          L2-NORM 
          0                 1           2             5    8     1       0.1054666877E+00       5    8    1         0.5754132004E+01      0.1333013100E+02
          0                 2           2             4    7     1      -0.3286043690E+00       5    8    1        -0.1789556056E+02      0.4358118791E+02
          0                 3           2             4    7     1       0.2237621450E-01       5    8    1         0.1252609069E+01      0.3050666452E+01
          0                 4           2             4    7     1      -0.8903730123E-03       5    8    1        -0.5122681117E-01      0.1247763823E+00
          0                 5           1             4    7     1       0.1097868115E-04       5    8    1         0.6488548154E-03      0.1583051336E-02

    ------------------------------------------------
       NWT REQUIRED            5 OUTER ITERATIONS 
       AND A TOTAL OF          9 INNER ITERATIONS.
    ------------------------------------------------

 NO OUTPUT CONTROL FOR STRESS PERIOD   20   TIME STEP   27
 
 SOLVING FOR HEAD 
                                                   Max.-Head-Change                         Max.-Flux-Residual
  Residual-Control   Outer-Iter.   Inner-Iter.     Column Row Layer    Maximum-Head-Change  Column Row Layer    Maximum-Flux-Residual          L2-NORM 
          0                 1           2             5    8     1       0.1098799025E+00       5    8    1         0.5995592683E+01      0.1387773561E+02
          0                 2           2             5    6     1      -0.1461975280E+00       5    8    1        -0.8056859290E+01      0.1948254566E+02
          0                 3           2             5    6     1       0.9955430727E-02       5    8    1         0.5639752654E+00      0.1364045632E+01
          0                 4           2             5    6     1      -0.3961362770E-03       5    8    1        -0.2306664428E-01      0.5581114765E-01
          0                 5           1             5    6     1       0.4884523748E-05       5    8    1         0.2923254428E-03      0.7116956544E-03

    ------------------------------------------------
       NWT REQUIRED            5 OUTER ITERATIONS 
       AND A TOTAL OF          9 INNER ITERATIONS.
    ------------------------------------------------

 NO OUTPUT CONTROL FOR STRESS PERIOD   20   TIME STEP   28
 
 SOLVING FOR HEAD 
                                                   Max.-Head-Change                         Max.-Flux-Residual
  Residual-Control   Outer-Iter.   Inner-Iter.     Column Row Layer    Maximum-Head-Change  Column Row Layer    Maximum-Flux-Residual          L2-NORM 
          0                 1           2             5    8     1       0.1087603861E+00       5    8    1         0.5931655273E+01      0.1381179666E+02
          0                 2           2             4    7     1      -0.3289578416E+00       5    8    1        -0.1791326664E+02      0.4362672496E+02
          0                 3           2             4    7     1       0.2240028396E-01       5    8    1         0.1253853108E+01      0.3053859348E+01
          0                 4           2             4    7     1      -0.8913307621E-03       5    8    1        -0.5127813117E-01      0.1249074472E+00
          0                 5           1             4    7     1       0.1099049087E-04       5    8    1         0.6495350208E-03      0.1584682535E-02

    ------------------------------------------------
       NWT REQUIRED            5 OUTER ITERATIONS 
       AND A TOTAL OF          9 INNER ITERATIONS.
    ------------------------------------------------

 NO OUTPUT CONTROL FOR STRESS PERIOD   20   TIME STEP   29
 
 SOLVING FOR HEAD 
                                                   Max.-Head-Change                         Max.-Flux-Residual
  Residual-Control   Outer-Iter.   Inner-Iter.     Column Row Layer    Maximum-Head-Change  Column Row Layer    Maximum-Flux-Residual          L2-NORM 
          0                 1           2             5    8     1       0.1130726842E+00       5    8    1         0.6166864242E+01      0.1434437509E+02
          0                 2           2             5    6     1      -0.1584233520E+00       5    8    1        -0.8728691755E+01      0.2112401317E+02
          0                 3           2             5    6     1       0.1078794966E-01       5    8    1         0.6110026509E+00      0.1478983328E+01
          0                 4           2             5    6     1      -0.4292630530E-03       5    8    1        -0.2499007122E-01      0.6051461819E-01
          0                 5           1             5    6     1       0.5292990664E-05       5    8    1         0.3167011766E-03      0.7714834821E-03

    ------------------------------------------------
       NWT REQUIRED            5 OUTER ITERATIONS 
       AND A TOTAL OF          9 INNER ITERATIONS.
    ------------------------------------------------

 NO OUTPUT CONTROL FOR STRESS PERIOD   20   TIME STEP   30



 STREAM LISTING     PERIOD     20   STEP       30

 LAYER ROW COL. STREAM  RCH.  FLOW INTO     FLOW TO   FLOW OUT OF   OVRLND.     DIRECT     STREAM       STREAM     STREAM     STREAM   STREAMBED  STREAMBED
                SEG.NO.  NO.  STRM. RCH.    AQUIFER    STRM. RCH.    RUNOFF     PRECIP       ET          HEAD       DEPTH      WIDTH   CONDCTNC.   GRADIENT

   1    1    1     1     1    1.6138E+01  1.9509E-01   1.5943E+01  0.000E+00  0.000E+00  0.000E+00  1.09408E+03  1.032E+00  1.075E+01  4.839E-02  1.344E+00
   1    2    2     1     2    1.5943E+01  3.0079E-01   1.5642E+01  0.000E+00  0.000E+00  0.000E+00  1.08909E+03  1.027E+00  1.067E+01  7.469E-02  1.342E+00
   1    3    3     1     3    1.5642E+01  2.5522E-01   1.5387E+01  0.000E+00  0.000E+00  0.000E+00  1.08344E+03  1.022E+00  1.058E+01  6.345E-02  1.341E+00
   1    3    4     1     4    1.5387E+01  2.3394E-01   1.5153E+01  0.000E+00  0.000E+00  0.000E+00  1.07843E+03  1.017E+00  1.049E+01  5.823E-02  1.339E+00
   1    4    5     2     1    1.3153E+01  2.9763E-01   1.2856E+01  0.000E+00  0.000E+00  0.000E+00  1.07275E+03  8.158E-01  1.200E+01  7.800E-02  1.272E+00
   1    5    6     2     2    1.2856E+01  2.2835E-01   1.2627E+01  0.000E+00  0.000E+00  0.000E+00  1.06732E+03  8.059E-01  1.200E+01  6.000E-02  1.269E+00
   1    6    6     2     3    1.2627E+01  2.2783E-01   1.2399E+01  0.000E+00  0.000E+00  0.000E+00  1.06259E+03  7.972E-01  1.200E+01  6.000E-02  1.266E+00
   1    7    6     2     4    1.2399E+01  2.2731E-01   1.2172E+01  0.000E+00  0.000E+00  0.000E+00  1.05786E+03  7.885E-01  1.200E+01  6.000E-02  1.263E+00
   1    8    6     2     5    1.2172E+01  2.2678E-01   1.1945E+01  0.000E+00  0.000E+00  0.000E+00  1.05314E+03  7.797E-01  1.200E+01  6.000E-02  1.260E+00
   1    3    5     3     1    2.0000E+00  2.8252E-01   1.7175E+00  0.000E+00  0.000E+00  0.000E+00  1.07555E+03  1.909E+00  9.636E+00  7.227E-02  1.955E+00
   1    3    6     3     2    1.7175E+00  2.4905E-01   1.4684E+00  0.000E+00  0.000E+00  0.000E+00  1.07264E+03  1.727E+00  8.909E+00  6.682E-02  1.864E+00
   1    3    7     3     3    1.4684E+00  1.9718E-01   1.2712E+00  0.000E+00  0.000E+00  0.000E+00  1.06987E+03  1.555E+00  8.218E+00  5.547E-02  1.777E+00
   1    4    8     3     4    1.2712E+00  2.2567E-01   1.0456E+00  0.000E+00  0.000E+00  0.000E+00  1.06682E+03  1.364E+00  7.455E+00  6.709E-02  1.682E+00
   1    5    8     3     5    1.0456E+00  1.5790E-01   8.8768E-01  0.000E+00  0.000E+00  0.000E+00  1.06362E+03  1.164E+00  6.655E+00  4.991E-02  1.582E+00
   1    6    8     3     6    8.8768E-01  5.5980E-02   8.3170E-01  0.000E+00  0.000E+00  0.000E+00  1.06158E+03  1.036E+00  6.145E+00  1.844E-02  1.518E+00
   1    5   10     4     1    1.0000E+01  9.0919E-02   9.9091E+00  0.000E+00  0.000E+00  0.000E+00  1.07836E+03  6.368E-01  1.000E+01  2.500E-02  1.212E+00
   1    5    9     4     2    9.9091E+00  1.8158E-01   9.7275E+00  0.000E+00  0.000E+00  0.000E+00  1.07154E+03  6.315E-01  1.000E+01  5.000E-02  1.211E+00
   1    6    8     4     3    9.7275E+00  1.2689E-01   9.6006E+00  0.000E+00  0.000E+00  0.000E+00  1.06381E+03  6.256E-01  1.000E+01  3.500E-02  1.209E+00
   1    6    8     5     1    1.0432E+01  2.2686E-01   1.0205E+01  0.000E+00  0.000E+00  0.000E+00  1.05868E+03  6.790E-01  1.542E+01  6.166E-02  1.226E+00
   1    7    7     5     2    1.0205E+01  2.7894E-01   9.9265E+00  0.000E+00  0.000E+00  0.000E+00  1.05417E+03  6.732E-01  1.519E+01  7.594E-02  1.224E+00
   1    8    7     5     3    9.9265E+00  1.9221E-01   9.7343E+00  0.000E+00  0.000E+00  0.000E+00  1.04992E+03  6.676E-01  1.497E+01  5.241E-02  1.223E+00
   1    8    6     5     4    9.7343E+00  1.3577E-01   9.5985E+00  0.000E+00  0.000E+00  0.000E+00  1.04691E+03  6.637E-01  1.482E+01  3.706E-02  1.221E+00
   1    9    6     6     1    9.5985E+00  2.2097E-01   9.3776E+00  0.000E+00  0.000E+00  0.000E+00  1.04341E+03  6.828E-01  1.200E+01  6.000E-02  1.228E+00
   1   10    7     6     2    9.3776E+00  2.2039E-01   9.1572E+00  0.000E+00  0.000E+00  0.000E+00  1.03885E+03  6.732E-01  1.200E+01  6.000E-02  1.224E+00
   1   11    7     6     3    9.1572E+00  2.1981E-01   8.9374E+00  0.000E+00  0.000E+00  0.000E+00  1.03430E+03  6.636E-01  1.200E+01  6.000E-02  1.221E+00
   1   12    7     6     4    8.9374E+00  2.1923E-01   8.7181E+00  0.000E+00  0.000E+00  0.000E+00  1.02974E+03  6.539E-01  1.200E+01  6.000E-02  1.218E+00
   1   13    7     6     5    8.7181E+00 -3.9973E-02   8.7581E+00  0.000E+00  0.000E+00  0.000E+00  1.02656E+03  6.499E-01  1.200E+01  2.400E-01 -5.552E-02
   1   14    9     7     1    1.5000E+02  1.3733E+00   1.4863E+02  0.000E+00  0.000E+00  0.000E+00  1.03987E+03  2.288E+00  5.529E+01  5.593E-01  8.184E-01
   1   13    8     7     2    1.4863E+02  1.9449E+00   1.4668E+02  0.000E+00  0.000E+00  0.000E+00  1.03478E+03  2.279E+00  5.525E+01  6.147E-01  1.055E+00
   1   13    7     7     3    1.4668E+02  1.6545E+00   1.4503E+02  0.000E+00  0.000E+00  0.000E+00  1.02969E+03  2.269E+00  5.521E+01  5.584E-01  9.877E-01
   1   13    6     8     1    1.5379E+02  1.0085E+00   1.5278E+02  0.000E+00  0.000E+00  0.000E+00  1.02471E+03  2.840E+00  4.118E+01  4.196E-01  8.011E-01
   1   13    5     8     2    1.5278E+02  2.7016E-01   1.5251E+02  0.000E+00  0.000E+00  0.000E+00  1.01846E+03  2.835E+00  4.111E+01  4.190E-01  2.150E-01
   1   13    4     8     3    1.5251E+02 -2.0931E+00   1.5460E+02  0.000E+00  0.000E+00  0.000E+00  1.01222E+03  2.842E+00  4.120E+01  4.199E+00 -1.662E-01
   1   13    3     8     4    1.5460E+02 -3.4808E+00   1.5808E+02  0.000E+00  0.000E+00  0.000E+00  1.00599E+03  2.861E+00  4.148E+01  4.227E+00 -2.745E-01
   1   13    2     8     5    1.5808E+02 -2.5588E+00   1.6064E+02  0.000E+00  0.000E+00  0.000E+00  9.99757E+02  2.882E+00  4.178E+01  4.258E+00 -2.003E-01
   1   13    1     8     6    1.6064E+02 -1.9978E+00   1.6264E+02  0.000E+00  0.000E+00  0.000E+00  9.94772E+02  2.897E+00  4.200E+01  2.568E+00 -2.593E-01
   1    8    6     9     1    1.1945E+01  0.0000E+00   1.1945E+01  0.000E+00  0.000E+00  0.000E+00  1.08127E+03  2.521E+00  4.000E+00  0.000E+00  1.840E+00
   1    8    5     9     2    1.1945E+01  0.0000E+00   1.1945E+01  0.000E+00  0.000E+00  0.000E+00  1.08077E+03  2.521E+00  4.000E+00  0.000E+00  1.840E+00





UNSATURATED ZONE PACKAGE VOLUMETRIC BUDGET FOR  TIME STEP    30 STRESS PERIOD   20
  ------------------------------------------------------------------------------



     CUMULATIVE VOLUMES      L**3       RATES FOR THIS TIME STEP      L**3/T
     ------------------                 ------------------------

           IN:                                      IN:
           ---                                      ---
        INFILTRATION =   859737223.4623          INFILTRATION =          61.4651

          OUT:                                     OUT:
          ----                                     ----
              UZF ET =   692578452.2878                UZF ET =          60.8175
        UZF RECHARGE =       73224.0000          UZF RECHARGE =       0.0000E+00

            IN - OUT =   167085547.1744              IN - OUT =           0.6476

          STORAGE:                                 STORAGE:
          --------                                 --------
      STORAGE CHANGE =   167086038.5052        STORAGE CHANGE =           0.6476

 PERCENT DISCREPANCY IS DIFFERENCE BETWEEN IN-OUT MINUS CHANGE IN STORAGE
 DIVIDED BY THE AVERAGE OF IN AND OUT TIMES 100

 PERCENT DISCREPANCY =          -0.00     PERCENT DISCREPANCY =           0.00






1
  VOLUMETRIC BUDGET FOR AGRICULTURAL FIELDS AT  END OF TIME STEP   30, STRESS PERIOD  20
  ------------------------------------------------------------------------------

     CUMULATIVE VOLUMES      L**3       RATES FOR THIS TIME STEP      L**3/T
     ------------------                 ------------------------

           IN:                                      IN:
           ---                                      ---
               AG WELLS  =   532860576.0000                 AG WELLS  =          48.6721
      DIVERSION SEGMENTS =   284451232.0000        DIVERSION SEGMENTS =          11.9453
           GW IRRIGATION =           0.0000             GW IRRIGATION =           0.0000
           SW IRRIGATION =           0.0000             SW IRRIGATION =           0.0000
        SYSTEM LOSSES GW =           0.0000          SYSTEM LOSSES GW =           0.0000
        SYSTEM LOSSES SW =           0.0000          SYSTEM LOSSES SW =           0.0000

                TOTAL IN =   817311808.0000                  TOTAL IN =          60.6174

          OUT:                                     OUT:
          ----                                     ----
               AG WELLS  =           0.0000                 AG WELLS  =           0.0000
      DIVERSION SEGMENTS =           0.0000        DIVERSION SEGMENTS =           0.0000
           GW IRRIGATION =   532860576.0000             GW IRRIGATION =          48.6721
           SW IRRIGATION =   284456896.0000             SW IRRIGATION =          11.9455
        SYSTEM LOSSES GW =           0.0000          SYSTEM LOSSES GW =           0.0000
        SYSTEM LOSSES SW =           0.0000          SYSTEM LOSSES SW =           0.0000

               TOTAL OUT =   817317504.0000                 TOTAL OUT =          60.6176

                IN - OUT =       -5696.0000                  IN - OUT =      -2.3651E-04

     PERCENT DISCREPANCY =          -0.00         PERCENT DISCREPANCY =          -0.00



1
  VOLUMETRIC BUDGET FOR ENTIRE MODEL AT END OF TIME STEP   30, STRESS PERIOD  20
  ------------------------------------------------------------------------------

     CUMULATIVE VOLUMES      L**3       RATES FOR THIS TIME STEP      L**3/T
     ------------------                 ------------------------

           IN:                                      IN:
           ---                                      ---
             STORAGE     =   704816064.0000               STORAGE     =          47.2806
       CONSTANT HEAD     =           0.0000         CONSTANT HEAD     =           0.0000
     HEAD DEP BOUNDS     =    14417166.0000       HEAD DEP BOUNDS     =           0.2883
      STREAM LEAKAGE     =   591339840.0000        STREAM LEAKAGE     =          11.7261
        UZF RECHARGE     =       73223.9531          UZF RECHARGE     =           0.0000
               GW ET     =           0.0000                 GW ET     =           0.0000
     SURFACE LEAKAGE     =           0.0000       SURFACE LEAKAGE     =           0.0000
           AG WELLS      =           0.0000             AG WELLS      =           0.0000

                TOTAL IN =  1310646272.0000                  TOTAL IN =          59.2950

          OUT:                                     OUT:
          ----                                     ----
             STORAGE     =   251775840.0000               STORAGE     =           0.1655
       CONSTANT HEAD     =           0.0000         CONSTANT HEAD     =           0.0000
     HEAD DEP BOUNDS     =    14430319.0000       HEAD DEP BOUNDS     =           0.2869
      STREAM LEAKAGE     =   511588768.0000        STREAM LEAKAGE     =          10.1704
        UZF RECHARGE     =           0.0000          UZF RECHARGE     =           0.0000
               GW ET     =           0.0000                 GW ET     =           0.0000
     SURFACE LEAKAGE     =           0.0000       SURFACE LEAKAGE     =           0.0000
           AG WELLS      =   532860576.0000             AG WELLS      =          48.6721

               TOTAL OUT =  1310655488.0000                 TOTAL OUT =          59.2950

                IN - OUT =       -9216.0000                  IN - OUT =       3.0518E-05

     PERCENT DISCREPANCY =          -0.00         PERCENT DISCREPANCY =           0.00






         TIME SUMMARY AT END OF TIME STEP   30 IN STRESS PERIOD   20
                    SECONDS     MINUTES      HOURS       DAYS        YEARS
                    -----------------------------------------------------------
   TIME STEP LENGTH  87667.      1461.1      24.352      1.0147     2.77799E-03
 STRESS PERIOD TIME 2.63000E+06  43833.      730.56      30.440     8.33397E-02
         TOTAL TIME 5.00565E+07 8.34276E+05  13905.      579.36      1.5862    
1
1
                            STRESS PERIOD NO.   21, LENGTH =   2630000.    
                            -----------------------------------------------

                              NUMBER OF TIME STEPS =    30

                               MULTIPLIER FOR DELT =     1.000

                            INITIAL TIME STEP SIZE =   87666.66    

 REUSING NON-PARAMETER GHB CELLS FROM LAST STRESS PERIOD

      2 GHB CELLS

 REUSING STREAM SEGMENT DATA FROM LAST STRESS PERIOD



            AREAL INFILTRATION RATE
 READING ON UNIT   19 WITH FORMAT: (FREE)              

            1           2           3           4           5           6           7           8           9          10
 ........................................................................................................................
   1   1.0000E-10  2.0000E-10   0.000       0.000       0.000       0.000       0.000       0.000       0.000       0.000    
   2   2.0000E-10  1.0000E-10  2.0000E-10   0.000       0.000      8.0000E-10  8.0000E-10  5.0000E-10   0.000       0.000    
   3    0.000      5.0000E-10  1.0000E-10  1.0000E-10  8.0000E-10  8.0000E-10  5.0000E-10  5.0000E-10   0.000       0.000    
   4   8.0000E-10  5.0000E-10  1.0000E-10  1.0000E-10  1.0000E-10  1.0000E-10  1.0000E-10  1.0000E-10  2.0000E-10   0.000    
   5   8.0000E-10  5.0000E-10  1.0000E-10  1.0000E-10  1.0000E-10  1.0000E-10  1.0000E-10  1.0000E-10  1.0000E-10  1.0000E-10
   6   8.0000E-10  5.0000E-10  5.0000E-10  2.0000E-10  2.0000E-10  1.0000E-10  1.0000E-10  1.0000E-10  1.0000E-10  5.0000E-10
   7   8.0000E-10  5.0000E-10  5.0000E-10  2.0000E-10  2.0000E-10  1.0000E-10  1.0000E-10  2.0000E-10  2.0000E-10   0.000    
   8    0.000      5.0000E-10  5.0000E-10  2.0000E-10  2.0000E-10  1.0000E-10  1.0000E-10  2.0000E-10  5.0000E-10   0.000    
   9    0.000      5.0000E-10  5.0000E-10  2.0000E-10  2.0000E-10  1.0000E-10  1.0000E-10  2.0000E-10  5.0000E-10   0.000    
  10    0.000      5.0000E-10  5.0000E-10  2.0000E-10  2.0000E-10  1.0000E-10  1.0000E-10  2.0000E-10  5.0000E-10  8.0000E-10
  11    0.000      1.0000E-10  1.0000E-10  1.0000E-10  1.0000E-10  1.0000E-10  1.0000E-10  2.0000E-10  5.0000E-10   0.000    
  12   1.0000E-10  1.0000E-10  1.0000E-10  1.0000E-10  1.0000E-10  1.0000E-10  1.0000E-10  1.0000E-10  2.0000E-10   0.000    
  13   1.0000E-10  1.0000E-10  2.0000E-10  2.0000E-10  2.0000E-10  2.0000E-10  2.0000E-10  1.0000E-10  1.0000E-10   0.000    
  14    0.000      2.0000E-10  5.0000E-10  5.0000E-10  5.0000E-10  5.0000E-10  5.0000E-10  2.0000E-10  1.0000E-10   0.000    
  15    0.000       0.000      8.0000E-10  8.0000E-10  8.0000E-10  8.0000E-10   0.000       0.000       0.000       0.000    

                  ET RATE =  3.250000E-07

 USING ET EXTINCTION DEPTH FROM PREVIOUS STRESS PERIOD. CURRENT PERIOD IS:      21

 USING EXTINCTION WATER CONTENT FROM PREVIOUS STRESS PERIOD. CURRENT PERIOD IS:      21

 USING AIR ENTRY PRESSURE FROM PREVIOUS STRESS PERIOD. CURRENT PERIOD IS:      21

 USING ROOT PRESSURE HEAD FROM PREVIOUS STRESS PERIOD. CURRENT PERIOD IS:      21

 USING ROOT ACTIVITY FROM PREVIOUS STRESS PERIOD. CURRENT PERIOD IS:      21

 PROCESSING AG STRESS PERIOD DATA

 READING AG STRESS PERIOD DATA

 READING IRRIGATION SEGMENT

 READING IRRIGATION WELL

 READING SUPPLEMENTAL WELL

 END PROCESSING AG STRESS PERIOD DATA OPTIONS
 
 SOLVING FOR HEAD 
                                                   Max.-Head-Change                         Max.-Flux-Residual
  Residual-Control   Outer-Iter.   Inner-Iter.     Column Row Layer    Maximum-Head-Change  Column Row Layer    Maximum-Flux-Residual          L2-NORM 
          0                 1           2             5    8     1       0.1122074336E+00       5    8    1         0.6117102151E+01      0.1430594755E+02
          0                 2           2             4    7     1      -0.2783229581E+00       5    8    1        -0.1519545057E+02      0.3696826531E+02
          0                 3           2             4    7     1       0.1895239734E-01       5    8    1         0.1063652577E+01      0.2587919765E+01
          0                 4           2             4    7     1      -0.7541353578E-03       5    8    1        -0.4350260381E-01      0.1058609045E+00
          0                 5           1             4    7     1       0.9298813136E-05       5    8    1         0.5512481525E-03      0.1344413293E-02

    ------------------------------------------------
       NWT REQUIRED            5 OUTER ITERATIONS 
       AND A TOTAL OF          9 INNER ITERATIONS.
    ------------------------------------------------

 NO OUTPUT CONTROL FOR STRESS PERIOD   21   TIME STEP    1
 
 SOLVING FOR HEAD 
                                                   Max.-Head-Change                         Max.-Flux-Residual
  Residual-Control   Outer-Iter.   Inner-Iter.     Column Row Layer    Maximum-Head-Change  Column Row Layer    Maximum-Flux-Residual          L2-NORM 
          0                 1           2             5    8     1       0.1149173190E+00       5    8    1         0.6264592487E+01      0.1465872493E+02
          0                 2           2             5    8     1      -0.4475643436E-01       5    8    1        -0.2475243732E+01      0.5857434845E+01
          0                 3           2             5    8     1       0.1622470562E-02       5    8    1         0.9259813923E-01      0.2187592693E+00
          0                 4           2             4    7     1      -0.1471225817E-02       5    8    1        -0.8417951030E-01      0.2054579412E+00
          0                 5           2             4    7     1      -0.1407804484E-02       4    7    1        -0.7982904643E-01      0.1955269200E+00
          0                 6           2             4    7     1      -0.1402974078E-02       5    8    1        -0.7955532892E-01      0.1948687433E+00
          0                 7           1             4    7     1       0.1732656688E-04       4    7    1         0.1009706430E-02      0.2473518340E-02

    ------------------------------------------------
       NWT REQUIRED            7 OUTER ITERATIONS 
       AND A TOTAL OF         13 INNER ITERATIONS.
    ------------------------------------------------

 NO OUTPUT CONTROL FOR STRESS PERIOD   21   TIME STEP    2
 
 SOLVING FOR HEAD 
                                                   Max.-Head-Change                         Max.-Flux-Residual
  Residual-Control   Outer-Iter.   Inner-Iter.     Column Row Layer    Maximum-Head-Change  Column Row Layer    Maximum-Flux-Residual          L2-NORM 
          0                 1           2             5    8     1       0.1108147523E+00       5    8    1         0.6036273721E+01      0.1425937716E+02
          0                 2           2             5    7     1      -0.2041382261E+00       5    8    1        -0.1118852558E+02      0.2718063885E+02
          0                 3           2             5    7     1       0.1390087076E-01       5    8    1         0.7831868915E+00      0.1902886001E+01
          0                 4           2             5    7     1      -0.5531295363E-03       5    8    1        -0.3203243596E-01      0.7784873426E-01
          0                 5           1             5    7     1       0.6820334345E-05       5    8    1         0.4059496243E-03      0.9904044114E-03

    ------------------------------------------------
       NWT REQUIRED            5 OUTER ITERATIONS 
       AND A TOTAL OF          9 INNER ITERATIONS.
    ------------------------------------------------

 NO OUTPUT CONTROL FOR STRESS PERIOD   21   TIME STEP    3
 
 SOLVING FOR HEAD 
                                                   Max.-Head-Change                         Max.-Flux-Residual
  Residual-Control   Outer-Iter.   Inner-Iter.     Column Row Layer    Maximum-Head-Change  Column Row Layer    Maximum-Flux-Residual          L2-NORM 
          0                 1           2             5    8     1       0.1115174547E+00       5    8    1         0.6073278380E+01      0.1438265016E+02
          0                 2           2             5    8     1      -0.6337474354E-01       5    8    1        -0.3499454194E+01      0.8378264964E+01
          0                 3           2             5    8     1       0.4315575360E-02       5    8    1         0.2449612741E+00      0.5873369842E+00
          0                 4           2             5    8     1      -0.1717208262E-03       5    8    1        -0.1001893297E-01      0.2408756866E-01
          0                 5           1             5    8     1       0.2117392023E-05       5    8    1         0.1269707509E-03      0.3172709857E-03

    ------------------------------------------------
       NWT REQUIRED            5 OUTER ITERATIONS 
       AND A TOTAL OF          9 INNER ITERATIONS.
    ------------------------------------------------

 NO OUTPUT CONTROL FOR STRESS PERIOD   21   TIME STEP    4
 
 SOLVING FOR HEAD 
                                                   Max.-Head-Change                         Max.-Flux-Residual
  Residual-Control   Outer-Iter.   Inner-Iter.     Column Row Layer    Maximum-Head-Change  Column Row Layer    Maximum-Flux-Residual          L2-NORM 
          0                 1           2             5    8     1       0.1080645054E+00       5    8    1         0.5881051501E+01      0.1404921280E+02
          0                 2           2             4    7     1      -0.2159128630E+00       5    8    1        -0.1179744868E+02      0.2869980559E+02
          0                 3           2             4    7     1       0.1470265115E-01       5    8    1         0.8258103448E+00      0.2009205434E+01
          0                 4           2             4    7     1      -0.5850332652E-03       5    8    1        -0.3377574311E-01      0.8219576361E-01
          0                 5           1             4    7     1       0.7213712079E-05       5    8    1         0.4280426929E-03      0.1045250617E-02

    ------------------------------------------------
       NWT REQUIRED            5 OUTER ITERATIONS 
       AND A TOTAL OF          9 INNER ITERATIONS.
    ------------------------------------------------

 NO OUTPUT CONTROL FOR STRESS PERIOD   21   TIME STEP    5
 
 SOLVING FOR HEAD 
                                                   Max.-Head-Change                         Max.-Flux-Residual
  Residual-Control   Outer-Iter.   Inner-Iter.     Column Row Layer    Maximum-Head-Change  Column Row Layer    Maximum-Flux-Residual          L2-NORM 
          0                 1           2             5    8     1       0.1093222364E+00       5    8    1         0.5948904467E+01      0.1422482369E+02
          0                 2           2             5    8     1      -0.5985398689E-01       5    8    1        -0.3304893181E+01      0.7927018827E+01
          0                 3           2             5    8     1       0.4075826598E-02       5    8    1         0.2313421098E+00      0.5557829228E+00
          0                 4           2             5    8     1      -0.1621809908E-03       5    8    1        -0.9461907852E-02      0.2279958286E-01
          0                 5           1             5    8     1       0.1999761771E-05       5    8    1         0.1199115368E-03      0.3014377055E-03

    ------------------------------------------------
       NWT REQUIRED            5 OUTER ITERATIONS 
       AND A TOTAL OF          9 INNER ITERATIONS.
    ------------------------------------------------

 NO OUTPUT CONTROL FOR STRESS PERIOD   21   TIME STEP    6
 
 SOLVING FOR HEAD 
                                                   Max.-Head-Change                         Max.-Flux-Residual
  Residual-Control   Outer-Iter.   Inner-Iter.     Column Row Layer    Maximum-Head-Change  Column Row Layer    Maximum-Flux-Residual          L2-NORM 
          0                 1           2             5    8     1       0.1059526483E+00       5    8    1         0.5761523721E+01      0.1389660724E+02
          0                 2           2             4    7     1      -0.2126787089E+00       5    8    1        -0.1160195774E+02      0.2824421646E+02
          0                 3           2             4    7     1       0.1448242060E-01       5    8    1         0.8121264208E+00      0.1977314644E+01
          0                 4           2             4    7     1      -0.5762700697E-03       5    8    1        -0.3321606777E-01      0.8089138908E-01
          0                 5           1             4    7     1       0.7105658311E-05       5    8    1         0.4209498775E-03      0.1028698144E-02

    ------------------------------------------------
       NWT REQUIRED            5 OUTER ITERATIONS 
       AND A TOTAL OF          9 INNER ITERATIONS.
    ------------------------------------------------

 NO OUTPUT CONTROL FOR STRESS PERIOD   21   TIME STEP    7
 
 SOLVING FOR HEAD 
                                                   Max.-Head-Change                         Max.-Flux-Residual
  Residual-Control   Outer-Iter.   Inner-Iter.     Column Row Layer    Maximum-Head-Change  Column Row Layer    Maximum-Flux-Residual          L2-NORM 
          0                 1           2             5    8     1       0.1072846571E+00       5    8    1         0.5833680297E+01      0.1407298981E+02
          0                 2           2             5    6     1      -0.6063121563E-01       5    8    1        -0.3346043201E+01      0.8047764562E+01
          0                 3           2             5    6     1       0.4128753169E-02       5    8    1         0.2342226002E+00      0.5642065795E+00
          0                 4           2             5    6     1      -0.1642869879E-03       5    8    1        -0.9579720139E-02      0.2314188681E-01
          0                 5           1             5    6     1       0.2025726698E-05       5    8    1         0.1214045894E-03      0.3053371654E-03

    ------------------------------------------------
       NWT REQUIRED            5 OUTER ITERATIONS 
       AND A TOTAL OF          9 INNER ITERATIONS.
    ------------------------------------------------

 NO OUTPUT CONTROL FOR STRESS PERIOD   21   TIME STEP    8
 
 SOLVING FOR HEAD 
                                                   Max.-Head-Change                         Max.-Flux-Residual
  Residual-Control   Outer-Iter.   Inner-Iter.     Column Row Layer    Maximum-Head-Change  Column Row Layer    Maximum-Flux-Residual          L2-NORM 
          0                 1           2             5    8     1       0.1041093281E+00       5    8    1         0.5657206706E+01      0.1376245856E+02
          0                 2           2             4    7     1      -0.2138490219E+00       5    8    1        -0.1164534501E+02      0.2837049710E+02
          0                 3           2             4    7     1       0.1456210854E-01       5    8    1         0.8151626026E+00      0.1986147807E+01
          0                 4           2             4    7     1      -0.5794409560E-03       5    8    1        -0.3334016335E-01      0.8125219479E-01
          0                 5           1             4    7     1       0.7144756418E-05       5    8    1         0.4225168018E-03      0.1033199995E-02

    ------------------------------------------------
       NWT REQUIRED            5 OUTER ITERATIONS 
       AND A TOTAL OF          9 INNER ITERATIONS.
    ------------------------------------------------

 NO OUTPUT CONTROL FOR STRESS PERIOD   21   TIME STEP    9
 
 SOLVING FOR HEAD 
                                                   Max.-Head-Change                         Max.-Flux-Residual
  Residual-Control   Outer-Iter.   Inner-Iter.     Column Row Layer    Maximum-Head-Change  Column Row Layer    Maximum-Flux-Residual          L2-NORM 
          0                 1           2             5    8     1       0.1056212828E+00       5    8    1         0.5739460027E+01      0.1395188164E+02
          0                 2           2             5    6     1      -0.6020123007E-01       5    8    1        -0.3321103714E+01      0.8004258151E+01
          0                 3           2             5    6     1       0.4099472926E-02       5    8    1         0.2324768534E+00      0.5611510908E+00
          0                 4           2             5    6     1      -0.1631218984E-03       5    8    1        -0.9508318911E-02      0.2301619280E-01
          0                 5           1             5    6     1       0.2011360459E-05       5    8    1         0.1204996947E-03      0.3036782430E-03

    ------------------------------------------------
       NWT REQUIRED            5 OUTER ITERATIONS 
       AND A TOTAL OF          9 INNER ITERATIONS.
    ------------------------------------------------

 NO OUTPUT CONTROL FOR STRESS PERIOD   21   TIME STEP   10
 
 SOLVING FOR HEAD 
                                                   Max.-Head-Change                         Max.-Flux-Residual
  Residual-Control   Outer-Iter.   Inner-Iter.     Column Row Layer    Maximum-Head-Change  Column Row Layer    Maximum-Flux-Residual          L2-NORM 
          0                 1           2             5    8     1       0.1025756864E+00       5    8    1         0.5570296006E+01      0.1365263512E+02
          0                 2           2             4    7     1      -0.2137071388E+00       5    8    1        -0.1162086132E+02      0.2832763482E+02
          0                 3           2             4    7     1       0.1455244406E-01       5    8    1         0.8134454618E+00      0.1983141012E+01
          0                 4           2             4    7     1      -0.5790564106E-03       5    8    1        -0.3326960611E-01      0.8112870262E-01
          0                 5           1             4    7     1       0.7140014942E-05       5    8    1         0.4216004947E-03      0.1031569560E-02

    ------------------------------------------------
       NWT REQUIRED            5 OUTER ITERATIONS 
       AND A TOTAL OF          9 INNER ITERATIONS.
    ------------------------------------------------

 NO OUTPUT CONTROL FOR STRESS PERIOD   21   TIME STEP   11
 
 SOLVING FOR HEAD 
                                                   Max.-Head-Change                         Max.-Flux-Residual
  Residual-Control   Outer-Iter.   Inner-Iter.     Column Row Layer    Maximum-Head-Change  Column Row Layer    Maximum-Flux-Residual          L2-NORM 
          0                 1           2             5    8     1       0.1042069814E+00       5    8    1         0.5659270091E+01      0.1384922180E+02
          0                 2           2             5    6     1      -0.6015721079E-01       5    8    1        -0.3317631833E+01      0.8010676161E+01
          0                 3           2             5    6     1       0.4096475385E-02       5    8    1         0.2322338276E+00      0.5615853221E+00
          0                 4           2             5    6     1      -0.1630026235E-03       5    8    1        -0.9498379110E-02      0.2303273960E-01
          0                 5           1             5    6     1       0.2009889929E-05       5    8    1         0.1203737384E-03      0.3037437175E-03

    ------------------------------------------------
       NWT REQUIRED            5 OUTER ITERATIONS 
       AND A TOTAL OF          9 INNER ITERATIONS.
    ------------------------------------------------

 NO OUTPUT CONTROL FOR STRESS PERIOD   21   TIME STEP   12
 
 SOLVING FOR HEAD 
                                                   Max.-Head-Change                         Max.-Flux-Residual
  Residual-Control   Outer-Iter.   Inner-Iter.     Column Row Layer    Maximum-Head-Change  Column Row Layer    Maximum-Flux-Residual          L2-NORM 
          0                 1           2             5    8     1       0.1012828061E+00       5    8    1         0.5496930916E+01      0.1356093428E+02
          0                 2           2             4    7     1      -0.2139319879E+00       5    8    1        -0.1161815893E+02      0.2833572028E+02
          0                 3           2             4    7     1       0.1456775217E-01       5    8    1         0.8132532597E+00      0.1983700528E+01
          0                 4           2             4    7     1      -0.5796655505E-03       5    8    1        -0.3326144811E-01      0.8115104250E-01
          0                 5           1             4    7     1       0.7147526096E-05       5    8    1         0.4214769456E-03      0.1031781989E-02

    ------------------------------------------------
       NWT REQUIRED            5 OUTER ITERATIONS 
       AND A TOTAL OF          9 INNER ITERATIONS.
    ------------------------------------------------

 NO OUTPUT CONTROL FOR STRESS PERIOD   21   TIME STEP   13
 
 SOLVING FOR HEAD 
                                                   Max.-Head-Change                         Max.-Flux-Residual
  Residual-Control   Outer-Iter.   Inner-Iter.     Column Row Layer    Maximum-Head-Change  Column Row Layer    Maximum-Flux-Residual          L2-NORM 
          0                 1           2             5    8     1       0.1030261449E+00       5    8    1         0.5592198949E+01      0.1376466133E+02
          0                 2           2             5    6     1      -0.6002614326E-01       5    8    1        -0.3309590501E+01      0.8003858581E+01
          0                 3           2             5    6     1       0.4087550209E-02       5    8    1         0.2316709410E+00      0.5610950636E+00
          0                 4           2             5    6     1      -0.1626474820E-03       5    8    1        -0.9475356973E-02      0.2301176312E-01
          0                 5           1             5    6     1       0.2005510709E-05       5    8    1         0.1200819809E-03      0.3032272607E-03

    ------------------------------------------------
       NWT REQUIRED            5 OUTER ITERATIONS 
       AND A TOTAL OF          9 INNER ITERATIONS.
    ------------------------------------------------

 NO OUTPUT CONTROL FOR STRESS PERIOD   21   TIME STEP   14
 
 SOLVING FOR HEAD 
                                                   Max.-Head-Change                         Max.-Flux-Residual
  Residual-Control   Outer-Iter.   Inner-Iter.     Column Row Layer    Maximum-Head-Change  Column Row Layer    Maximum-Flux-Residual          L2-NORM 
          0                 1           2             5    8     1       0.1002026014E+00       5    8    1         0.5435514610E+01      0.1348555469E+02
          0                 2           2             4    7     1      -0.2140328608E+00       5    8    1        -0.1161065756E+02      0.2832999926E+02
          0                 3           2             4    7     1       0.1457461853E-01       5    8    1         0.8127255752E+00      0.1983294290E+01
          0                 4           2             4    7     1      -0.5799387825E-03       5    8    1        -0.3323961170E-01      0.8113398462E-01
          0                 5           1             4    7     1       0.7150894719E-05       5    6    1         0.4211913663E-03      0.1031518642E-02

    ------------------------------------------------
       NWT REQUIRED            5 OUTER ITERATIONS 
       AND A TOTAL OF          9 INNER ITERATIONS.
    ------------------------------------------------

 NO OUTPUT CONTROL FOR STRESS PERIOD   21   TIME STEP   15
 
 SOLVING FOR HEAD 
                                                   Max.-Head-Change                         Max.-Flux-Residual
  Residual-Control   Outer-Iter.   Inner-Iter.     Column Row Layer    Maximum-Head-Change  Column Row Layer    Maximum-Flux-Residual          L2-NORM 
          0                 1           2             5    8     1       0.1020387336E+00       5    8    1         0.5535994572E+01      0.1369494725E+02
          0                 2           2             5    6     1      -0.5994316307E-01       5    8    1        -0.3304361502E+01      0.8002136786E+01
          0                 3           2             5    6     1       0.4081899576E-02       5    8    1         0.2313049153E+00      0.5609613946E+00
          0                 4           2             5    6     1      -0.1624226383E-03       5    8    1        -0.9460386486E-02      0.2300540920E-01
          0                 5           1             5    6     1       0.2002738341E-05       5    8    1         0.1198922484E-03      0.3029962008E-03

    ------------------------------------------------
       NWT REQUIRED            5 OUTER ITERATIONS 
       AND A TOTAL OF          9 INNER ITERATIONS.
    ------------------------------------------------

 NO OUTPUT CONTROL FOR STRESS PERIOD   21   TIME STEP   16
 
 SOLVING FOR HEAD 
                                                   Max.-Head-Change                         Max.-Flux-Residual
  Residual-Control   Outer-Iter.   Inner-Iter.     Column Row Layer    Maximum-Head-Change  Column Row Layer    Maximum-Flux-Residual          L2-NORM 
          0                 1           2             5    8     1       0.9930252039E-01       5    8    1         0.5384213332E+01      0.1342391762E+02
          0                 2           2             4    7     1      -0.2141555175E+00       5    8    1        -0.1160592625E+02      0.2832932361E+02
          0                 3           2             4    7     1       0.1458296851E-01       5    8    1         0.8123921009E+00      0.1983241557E+01
          0                 4           2             4    7     1      -0.5802710475E-03       5    8    1        -0.3322574918E-01      0.8113140893E-01
          0                 5           1             4    7     1       0.7154991773E-05       5    6    1         0.4210308907E-03      0.1031424894E-02

    ------------------------------------------------
       NWT REQUIRED            5 OUTER ITERATIONS 
       AND A TOTAL OF          9 INNER ITERATIONS.
    ------------------------------------------------

 NO OUTPUT CONTROL FOR STRESS PERIOD   21   TIME STEP   17
 
 SOLVING FOR HEAD 
                                                   Max.-Head-Change                         Max.-Flux-Residual
  Residual-Control   Outer-Iter.   Inner-Iter.     Column Row Layer    Maximum-Head-Change  Column Row Layer    Maximum-Flux-Residual          L2-NORM 
          0                 1           2             5    8     1       0.1012189810E+00       5    8    1         0.5489200897E+01      0.1363816065E+02
          0                 2           2             5    6     1      -0.5986556841E-01       5    8    1        -0.3299567634E+01      0.7999965558E+01
          0                 3           2             5    6     1       0.4076615670E-02       5    8    1         0.2309693477E+00      0.5607908100E+00
          0                 4           2             5    6     1      -0.1622123865E-03       5    8    1        -0.9446661750E-02      0.2299641367E-01
          0                 5           1             5    6     1       0.2000145758E-05       5    8    1         0.1197183219E-03      0.3025082742E-03

    ------------------------------------------------
       NWT REQUIRED            5 OUTER ITERATIONS 
       AND A TOTAL OF          9 INNER ITERATIONS.
    ------------------------------------------------

 NO OUTPUT CONTROL FOR STRESS PERIOD   21   TIME STEP   18
 
 SOLVING FOR HEAD 
                                                   Max.-Head-Change                         Max.-Flux-Residual
  Residual-Control   Outer-Iter.   Inner-Iter.     Column Row Layer    Maximum-Head-Change  Column Row Layer    Maximum-Flux-Residual          L2-NORM 
          0                 1           2             5    8     1       0.9855720530E-01       5    8    1         0.5341596637E+01      0.1337413430E+02
          0                 2           2             4    7     1      -0.2142587939E+00       5    8    1        -0.1160154744E+02      0.2832803332E+02
          0                 3           2             4    7     1       0.1458999903E-01       5    8    1         0.8120835805E+00      0.1983144184E+01
          0                 4           2             4    7     1      -0.5805508090E-03       5    8    1        -0.3321293472E-01      0.8112673102E-01
          0                 5           1             4    7     1       0.7158441382E-05       5    6    1         0.4208760072E-03      0.1031253658E-02

    ------------------------------------------------
       NWT REQUIRED            5 OUTER ITERATIONS 
       AND A TOTAL OF          9 INNER ITERATIONS.
    ------------------------------------------------

 NO OUTPUT CONTROL FOR STRESS PERIOD   21   TIME STEP   19
 
 SOLVING FOR HEAD 
                                                   Max.-Head-Change                         Max.-Flux-Residual
  Residual-Control   Outer-Iter.   Inner-Iter.     Column Row Layer    Maximum-Head-Change  Column Row Layer    Maximum-Flux-Residual          L2-NORM 
          0                 1           2             5    8     1       0.1005423886E+00       5    8    1         0.5450438462E+01      0.1359242970E+02
          0                 2           2             5    7     1      -0.5984876644E-01       5    8    1        -0.3295725173E+01      0.7998830853E+01
          0                 3           2             5    7     1       0.4075467731E-02       5    8    1         0.2307003774E+00      0.5606988223E+00
          0                 4           2             5    7     1      -0.1621667269E-03       5    8    1        -0.9435660820E-02      0.2299171644E-01
          0                 5           1             5    7     1       0.1999587588E-05       5    8    1         0.1195788927E-03      0.3025294224E-03

    ------------------------------------------------
       NWT REQUIRED            5 OUTER ITERATIONS 
       AND A TOTAL OF          9 INNER ITERATIONS.
    ------------------------------------------------

 NO OUTPUT CONTROL FOR STRESS PERIOD   21   TIME STEP   20
 
 SOLVING FOR HEAD 
                                                   Max.-Head-Change                         Max.-Flux-Residual
  Residual-Control   Outer-Iter.   Inner-Iter.     Column Row Layer    Maximum-Head-Change  Column Row Layer    Maximum-Flux-Residual          L2-NORM 
          0                 1           2             5    8     1       0.9794488260E-01       5    8    1         0.5306438495E+01      0.1333452004E+02
          0                 2           2             4    7     1      -0.2143561882E+00       5    8    1        -0.1159806612E+02      0.2832767650E+02
          0                 3           2             4    7     1       0.1459662921E-01       5    8    1         0.8118381129E+00      0.1983112650E+01
          0                 4           2             4    7     1      -0.5808146397E-03       5    8    1        -0.3320272186E-01      0.8112490965E-01
          0                 5           1             4    7     1       0.7161694517E-05       5    6    1         0.4207361537E-03      0.1031186764E-02

    ------------------------------------------------
       NWT REQUIRED            5 OUTER ITERATIONS 
       AND A TOTAL OF          9 INNER ITERATIONS.
    ------------------------------------------------

 NO OUTPUT CONTROL FOR STRESS PERIOD   21   TIME STEP   21
 
 SOLVING FOR HEAD 
                                                   Max.-Head-Change                         Max.-Flux-Residual
  Residual-Control   Outer-Iter.   Inner-Iter.     Column Row Layer    Maximum-Head-Change  Column Row Layer    Maximum-Flux-Residual          L2-NORM 
          0                 1           2             5    8     1       0.9998915002E-01       5    8    1         0.5418591878E+01      0.1355622229E+02
          0                 2           2             5    7     1      -0.5986026252E-01       5    8    1        -0.3292531132E+01      0.7998176291E+01
          0                 3           2             5    7     1       0.4076250290E-02       5    8    1         0.2304767956E+00      0.5606406676E+00
          0                 4           2             5    7     1      -0.1621978672E-03       5    8    1        -0.9426516312E-02      0.2298836065E-01
          0                 5           1             5    7     1       0.1999971575E-05       5    8    1         0.1194630147E-03      0.3021963783E-03

    ------------------------------------------------
       NWT REQUIRED            5 OUTER ITERATIONS 
       AND A TOTAL OF          9 INNER ITERATIONS.
    ------------------------------------------------

 NO OUTPUT CONTROL FOR STRESS PERIOD   21   TIME STEP   22
 
 SOLVING FOR HEAD 
                                                   Max.-Head-Change                         Max.-Flux-Residual
  Residual-Control   Outer-Iter.   Inner-Iter.     Column Row Layer    Maximum-Head-Change  Column Row Layer    Maximum-Flux-Residual          L2-NORM 
          0                 1           2             5    8     1       0.9744663993E-01       5    8    1         0.5277674766E+01      0.1330367653E+02
          0                 2           2             4    7     1      -0.2144450352E+00       5    8    1        -0.1159518131E+02      0.2832770447E+02
          0                 3           2             4    7     1       0.1460267758E-01       5    8    1         0.8116335405E+00      0.1983107056E+01
          0                 4           2             4    7     1      -0.5810553185E-03       5    8    1        -0.3319409854E-01      0.8112404725E-01
          0                 5           1             4    7     1       0.7164662014E-05       5    6    1         0.4206115586E-03      0.1031108047E-02

    ------------------------------------------------
       NWT REQUIRED            5 OUTER ITERATIONS 
       AND A TOTAL OF          9 INNER ITERATIONS.
    ------------------------------------------------

 NO OUTPUT CONTROL FOR STRESS PERIOD   21   TIME STEP   23
 
 SOLVING FOR HEAD 
                                                   Max.-Head-Change                         Max.-Flux-Residual
  Residual-Control   Outer-Iter.   Inner-Iter.     Column Row Layer    Maximum-Head-Change  Column Row Layer    Maximum-Flux-Residual          L2-NORM 
          0                 1           2             5    8     1       0.9954171385E-01       5    8    1         0.5392674396E+01      0.1352824461E+02
          0                 2           2             5    7     1      -0.5987301892E-01       5    8    1        -0.3289941674E+01      0.7998058643E+01
          0                 3           2             5    7     1       0.4077118702E-02       5    8    1         0.2302955339E+00      0.5606204543E+00
          0                 4           2             5    7     1      -0.1622324232E-03       5    8    1        -0.9419102682E-02      0.2298661890E-01
          0                 5           1             5    7     1       0.2000397679E-05       5    8    1         0.1193690582E-03      0.3018664737E-03

    ------------------------------------------------
       NWT REQUIRED            5 OUTER ITERATIONS 
       AND A TOTAL OF          9 INNER ITERATIONS.
    ------------------------------------------------

 NO OUTPUT CONTROL FOR STRESS PERIOD   21   TIME STEP   24
 
 SOLVING FOR HEAD 
                                                   Max.-Head-Change                         Max.-Flux-Residual
  Residual-Control   Outer-Iter.   Inner-Iter.     Column Row Layer    Maximum-Head-Change  Column Row Layer    Maximum-Flux-Residual          L2-NORM 
          0                 1           2             5    8     1       0.9704659655E-01       5    8    1         0.5254412728E+01      0.1328040044E+02
          0                 2           2             4    7     1      -0.2145271920E+00       5    8    1        -0.1159285619E+02      0.2832818158E+02
          0                 3           2             4    7     1       0.1460827054E-01       5    8    1         0.8114680836E+00      0.1983133274E+01
          0                 4           2             4    7     1      -0.5812778758E-03       5    8    1        -0.3318706920E-01      0.8112452339E-01
          0                 5           1             4    7     1       0.7167406714E-05       5    6    1         0.4205079185E-03      0.1031028044E-02

    ------------------------------------------------
       NWT REQUIRED            5 OUTER ITERATIONS 
       AND A TOTAL OF          9 INNER ITERATIONS.
    ------------------------------------------------

 NO OUTPUT CONTROL FOR STRESS PERIOD   21   TIME STEP   25
 
 SOLVING FOR HEAD 
                                                   Max.-Head-Change                         Max.-Flux-Residual
  Residual-Control   Outer-Iter.   Inner-Iter.     Column Row Layer    Maximum-Head-Change  Column Row Layer    Maximum-Flux-Residual          L2-NORM 
          0                 1           2             5    8     1       0.9918531910E-01       5    8    1         0.5371856543E+01      0.1350736889E+02
          0                 2           2             5    7     1      -0.5988679528E-01       5    8    1        -0.3287860024E+01      0.7998375817E+01
          0                 3           2             5    7     1       0.4078056597E-02       5    8    1         0.2301498181E+00      0.5606308412E+00
          0                 4           2             5    7     1      -0.1622697444E-03       5    8    1        -0.9413142916E-02      0.2298619327E-01
          0                 5           1             5    7     1       0.2000858060E-05       5    8    1         0.1192935306E-03      0.3018099978E-03

    ------------------------------------------------
       NWT REQUIRED            5 OUTER ITERATIONS 
       AND A TOTAL OF          9 INNER ITERATIONS.
    ------------------------------------------------

 NO OUTPUT CONTROL FOR STRESS PERIOD   21   TIME STEP   26
 
 SOLVING FOR HEAD 
                                                   Max.-Head-Change                         Max.-Flux-Residual
  Residual-Control   Outer-Iter.   Inner-Iter.     Column Row Layer    Maximum-Head-Change  Column Row Layer    Maximum-Flux-Residual          L2-NORM 
          0                 1           2             5    8     1       0.9673111613E-01       5    8    1         0.5235886601E+01      0.1326366710E+02
          0                 2           2             4    7     1      -0.2146032315E+00       5    8    1        -0.1159100370E+02      0.2832902613E+02
          0                 3           2             4    7     1       0.1461344711E-01       5    8    1         0.8113359640E+00      0.1983185704E+01
          0                 4           2             4    7     1      -0.5814838628E-03       5    8    1        -0.3318142817E-01      0.8112612291E-01
          0                 5           1             4    7     1       0.7169945978E-05       5    6    1         0.4204221159E-03      0.1030996699E-02

    ------------------------------------------------
       NWT REQUIRED            5 OUTER ITERATIONS 
       AND A TOTAL OF          9 INNER ITERATIONS.
    ------------------------------------------------

 NO OUTPUT CONTROL FOR STRESS PERIOD   21   TIME STEP   27
 
 SOLVING FOR HEAD 
                                                   Max.-Head-Change                         Max.-Flux-Residual
  Residual-Control   Outer-Iter.   Inner-Iter.     Column Row Layer    Maximum-Head-Change  Column Row Layer    Maximum-Flux-Residual          L2-NORM 
          0                 1           2             5    8     1       0.9890736415E-01       5    8    1         0.5355430978E+01      0.1349264240E+02
          0                 2           2             5    7     1      -0.5990162379E-01       5    8    1        -0.3286217595E+01      0.7999074817E+01
          0                 3           2             5    7     1       0.4079066160E-02       5    8    1         0.2300348472E+00      0.5606683010E+00
          0                 4           2             5    7     1      -0.1623099168E-03       5    8    1        -0.9408440606E-02      0.2298678437E-01
          0                 5           1             5    7     1       0.2001353390E-05       5    8    1         0.1192339344E-03      0.3015132606E-03

    ------------------------------------------------
       NWT REQUIRED            5 OUTER ITERATIONS 
       AND A TOTAL OF          9 INNER ITERATIONS.
    ------------------------------------------------

 NO OUTPUT CONTROL FOR STRESS PERIOD   21   TIME STEP   28
 
 SOLVING FOR HEAD 
                                                   Max.-Head-Change                         Max.-Flux-Residual
  Residual-Control   Outer-Iter.   Inner-Iter.     Column Row Layer    Maximum-Head-Change  Column Row Layer    Maximum-Flux-Residual          L2-NORM 
          0                 1           2             5    8     1       0.9648841511E-01       5    8    1         0.5221435301E+01      0.1325258163E+02
          0                 2           2             4    7     1      -0.2146738387E+00       5    8    1        -0.1158955869E+02      0.2833019022E+02
          0                 3           2             4    7     1       0.1461825390E-01       5    8    1         0.8112325860E+00      0.1983260930E+01
          0                 4           2             4    7     1      -0.5816751359E-03       5    8    1        -0.3317698404E-01      0.8112870044E-01
          0                 5           1             4    7     1       0.7172304898E-05       5    6    1         0.4203518058E-03      0.1030980383E-02

    ------------------------------------------------
       NWT REQUIRED            5 OUTER ITERATIONS 
       AND A TOTAL OF          9 INNER ITERATIONS.
    ------------------------------------------------

 NO OUTPUT CONTROL FOR STRESS PERIOD   21   TIME STEP   29
 
 SOLVING FOR HEAD 
                                                   Max.-Head-Change                         Max.-Flux-Residual
  Residual-Control   Outer-Iter.   Inner-Iter.     Column Row Layer    Maximum-Head-Change  Column Row Layer    Maximum-Flux-Residual          L2-NORM 
          0                 1           2             5    8     1       0.9869695017E-01       5    8    1         0.5342786786E+01      0.1348324128E+02
          0                 2           2             5    7     1      -0.5991742815E-01       5    8    1        -0.3284953296E+01      0.8000103321E+01
          0                 3           2             5    7     1       0.4080142195E-02       5    8    1         0.2299463451E+00      0.5607287890E+00
          0                 4           2             5    7     1      -0.1623527339E-03       5    8    1        -0.9404820864E-02      0.2298840259E-01
          0                 5           1             5    7     1       0.2001881316E-05       5    8    1         0.1191880626E-03      0.3014852118E-03

    ------------------------------------------------
       NWT REQUIRED            5 OUTER ITERATIONS 
       AND A TOTAL OF          9 INNER ITERATIONS.
    ------------------------------------------------

 NO OUTPUT CONTROL FOR STRESS PERIOD   21   TIME STEP   30



 STREAM LISTING     PERIOD     21   STEP       30

 LAYER ROW COL. STREAM  RCH.  FLOW INTO     FLOW TO   FLOW OUT OF   OVRLND.     DIRECT     STREAM       STREAM     STREAM     STREAM   STREAMBED  STREAMBED
                SEG.NO.  NO.  STRM. RCH.    AQUIFER    STRM. RCH.    RUNOFF     PRECIP       ET          HEAD       DEPTH      WIDTH   CONDCTNC.   GRADIENT

   1    1    1     1     1    1.3875E+01  1.7894E-01   1.3696E+01  0.000E+00  0.000E+00  0.000E+00  1.09404E+03  9.877E-01  9.972E+00  4.487E-02  1.329E+00
   1    2    2     1     2    1.3696E+01  2.7574E-01   1.3421E+01  0.000E+00  0.000E+00  0.000E+00  1.08904E+03  9.829E-01  9.890E+00  6.923E-02  1.328E+00
   1    3    3     1     3    1.3421E+01  2.3381E-01   1.3187E+01  0.000E+00  0.000E+00  0.000E+00  1.08340E+03  9.775E-01  9.797E+00  5.878E-02  1.326E+00
   1    3    4     1     4    1.3187E+01  2.1419E-01   1.2973E+01  0.000E+00  0.000E+00  0.000E+00  1.07838E+03  9.727E-01  9.715E+00  5.392E-02  1.324E+00
   1    4    5     2     1    1.0973E+01  2.9101E-01   1.0682E+01  0.000E+00  0.000E+00  0.000E+00  1.07266E+03  7.309E-01  1.200E+01  7.800E-02  1.244E+00
   1    5    6     2     2    1.0682E+01  2.2323E-01   1.0458E+01  0.000E+00  0.000E+00  0.000E+00  1.06723E+03  7.204E-01  1.200E+01  6.000E-02  1.240E+00
   1    6    6     2     3    1.0458E+01  2.2268E-01   1.0236E+01  0.000E+00  0.000E+00  0.000E+00  1.06250E+03  7.113E-01  1.200E+01  6.000E-02  1.237E+00
   1    7    6     2     4    1.0236E+01  2.2212E-01   1.0013E+01  0.000E+00  0.000E+00  0.000E+00  1.05778E+03  7.021E-01  1.200E+01  6.000E-02  1.234E+00
   1    8    6     2     5    1.0013E+01  2.2157E-01   9.7919E+00  0.000E+00  0.000E+00  0.000E+00  1.05305E+03  6.928E-01  1.200E+01  6.000E-02  1.231E+00
   1    3    5     3     1    2.0000E+00  2.8252E-01   1.7175E+00  0.000E+00  0.000E+00  0.000E+00  1.07555E+03  1.909E+00  9.636E+00  7.227E-02  1.955E+00
   1    3    6     3     2    1.7175E+00  2.4905E-01   1.4684E+00  0.000E+00  0.000E+00  0.000E+00  1.07264E+03  1.727E+00  8.909E+00  6.682E-02  1.864E+00
   1    3    7     3     3    1.4684E+00  1.9718E-01   1.2712E+00  0.000E+00  0.000E+00  0.000E+00  1.06987E+03  1.555E+00  8.218E+00  5.547E-02  1.777E+00
   1    4    8     3     4    1.2712E+00  2.2567E-01   1.0456E+00  0.000E+00  0.000E+00  0.000E+00  1.06682E+03  1.364E+00  7.455E+00  6.709E-02  1.682E+00
   1    5    8     3     5    1.0456E+00  1.5790E-01   8.8768E-01  0.000E+00  0.000E+00  0.000E+00  1.06362E+03  1.164E+00  6.655E+00  4.991E-02  1.582E+00
   1    6    8     3     6    8.8768E-01  5.5980E-02   8.3170E-01  0.000E+00  0.000E+00  0.000E+00  1.06158E+03  1.036E+00  6.145E+00  1.844E-02  1.518E+00
   1    5   10     4     1    1.0000E+01  9.0919E-02   9.9091E+00  0.000E+00  0.000E+00  0.000E+00  1.07836E+03  6.368E-01  1.000E+01  2.500E-02  1.212E+00
   1    5    9     4     2    9.9091E+00  1.8158E-01   9.7275E+00  0.000E+00  0.000E+00  0.000E+00  1.07154E+03  6.315E-01  1.000E+01  5.000E-02  1.211E+00
   1    6    8     4     3    9.7275E+00  1.2689E-01   9.6006E+00  0.000E+00  0.000E+00  0.000E+00  1.06381E+03  6.256E-01  1.000E+01  3.500E-02  1.209E+00
   1    6    8     5     1    1.0432E+01  2.2686E-01   1.0205E+01  0.000E+00  0.000E+00  0.000E+00  1.05868E+03  6.790E-01  1.542E+01  6.166E-02  1.226E+00
   1    7    7     5     2    1.0205E+01  2.7894E-01   9.9265E+00  0.000E+00  0.000E+00  0.000E+00  1.05417E+03  6.732E-01  1.519E+01  7.594E-02  1.224E+00
   1    8    7     5     3    9.9265E+00  1.9221E-01   9.7343E+00  0.000E+00  0.000E+00  0.000E+00  1.04992E+03  6.676E-01  1.497E+01  5.241E-02  1.223E+00
   1    8    6     5     4    9.7343E+00  1.3577E-01   9.5985E+00  0.000E+00  0.000E+00  0.000E+00  1.04691E+03  6.637E-01  1.482E+01  3.706E-02  1.221E+00
   1    9    6     6     1    9.5985E+00  2.2097E-01   9.3776E+00  0.000E+00  0.000E+00  0.000E+00  1.04341E+03  6.828E-01  1.200E+01  6.000E-02  1.228E+00
   1   10    7     6     2    9.3776E+00  2.2039E-01   9.1572E+00  0.000E+00  0.000E+00  0.000E+00  1.03885E+03  6.732E-01  1.200E+01  6.000E-02  1.224E+00
   1   11    7     6     3    9.1572E+00  2.1981E-01   8.9374E+00  0.000E+00  0.000E+00  0.000E+00  1.03430E+03  6.636E-01  1.200E+01  6.000E-02  1.221E+00
   1   12    7     6     4    8.9374E+00  2.1923E-01   8.7181E+00  0.000E+00  0.000E+00  0.000E+00  1.02974E+03  6.539E-01  1.200E+01  6.000E-02  1.218E+00
   1   13    7     6     5    8.7181E+00 -3.6346E-02   8.7545E+00  0.000E+00  0.000E+00  0.000E+00  1.02656E+03  6.498E-01  1.200E+01  2.400E-01 -5.048E-02
   1   14    9     7     1    1.5000E+02  1.3741E+00   1.4863E+02  0.000E+00  0.000E+00  0.000E+00  1.03987E+03  2.288E+00  5.529E+01  5.593E-01  8.189E-01
   1   13    8     7     2    1.4863E+02  1.9495E+00   1.4668E+02  0.000E+00  0.000E+00  0.000E+00  1.03478E+03  2.279E+00  5.525E+01  6.147E-01  1.057E+00
   1   13    7     7     3    1.4668E+02  1.6630E+00   1.4501E+02  0.000E+00  0.000E+00  0.000E+00  1.02969E+03  2.269E+00  5.521E+01  5.584E-01  9.927E-01
   1   13    6     8     1    1.5377E+02  1.0169E+00   1.5275E+02  0.000E+00  0.000E+00  0.000E+00  1.02471E+03  2.840E+00  4.117E+01  4.196E-01  8.079E-01
   1   13    5     8     2    1.5275E+02  2.7822E-01   1.5247E+02  0.000E+00  0.000E+00  0.000E+00  1.01846E+03  2.835E+00  4.111E+01  4.189E-01  2.214E-01
   1   13    4     8     3    1.5247E+02 -2.0616E+00   1.5453E+02  0.000E+00  0.000E+00  0.000E+00  1.01222E+03  2.841E+00  4.120E+01  4.198E+00 -1.637E-01
   1   13    3     8     4    1.5453E+02 -3.4576E+00   1.5799E+02  0.000E+00  0.000E+00  0.000E+00  1.00599E+03  2.860E+00  4.148E+01  4.227E+00 -2.727E-01
   1   13    2     8     5    1.5799E+02 -2.5365E+00   1.6053E+02  0.000E+00  0.000E+00  0.000E+00  9.99756E+02  2.881E+00  4.177E+01  4.257E+00 -1.986E-01
   1   13    1     8     6    1.6053E+02 -1.9748E+00   1.6250E+02  0.000E+00  0.000E+00  0.000E+00  9.94771E+02  2.896E+00  4.199E+01  2.568E+00 -2.564E-01
   1    8    6     9     1    9.7919E+00  0.0000E+00   9.7919E+00  0.000E+00  0.000E+00  0.000E+00  1.08099E+03  2.238E+00  4.000E+00  0.000E+00  1.746E+00
   1    8    5     9     2    9.7919E+00  0.0000E+00   9.7919E+00  0.000E+00  0.000E+00  0.000E+00  1.08049E+03  2.238E+00  4.000E+00  0.000E+00  1.746E+00





UNSATURATED ZONE PACKAGE VOLUMETRIC BUDGET FOR  TIME STEP    30 STRESS PERIOD   21
  ------------------------------------------------------------------------------



     CUMULATIVE VOLUMES      L**3       RATES FOR THIS TIME STEP      L**3/T
     ------------------                 ------------------------

           IN:                                      IN:
           ---                                      ---
        INFILTRATION =   998150970.0262          INFILTRATION =          27.1437

          OUT:                                     OUT:
          ----                                     ----
              UZF ET =   823028175.9142                UZF ET =          49.6308
        UZF RECHARGE =       73224.0000          UZF RECHARGE =       0.0000E+00

            IN - OUT =   175049570.1119              IN - OUT =         -22.4871

          STORAGE:                                 STORAGE:
          --------                                 --------
      STORAGE CHANGE =   175050060.3631        STORAGE CHANGE =         -22.4871

 PERCENT DISCREPANCY IS DIFFERENCE BETWEEN IN-OUT MINUS CHANGE IN STORAGE
 DIVIDED BY THE AVERAGE OF IN AND OUT TIMES 100

 PERCENT DISCREPANCY =          -0.00     PERCENT DISCREPANCY =           0.00






1
  VOLUMETRIC BUDGET FOR AGRICULTURAL FIELDS AT  END OF TIME STEP   30, STRESS PERIOD  21
  ------------------------------------------------------------------------------

     CUMULATIVE VOLUMES      L**3       RATES FOR THIS TIME STEP      L**3/T
     ------------------                 ------------------------

           IN:                                      IN:
           ---                                      ---
               AG WELLS  =   643291968.0000                 AG WELLS  =          16.5041
      DIVERSION SEGMENTS =   310204192.0000        DIVERSION SEGMENTS =           9.7919
           GW IRRIGATION =           0.0000             GW IRRIGATION =           0.0000
           SW IRRIGATION =           0.0000             SW IRRIGATION =           0.0000
        SYSTEM LOSSES GW =           0.0000          SYSTEM LOSSES GW =           0.0000
        SYSTEM LOSSES SW =           0.0000          SYSTEM LOSSES SW =           0.0000

                TOTAL IN =   953496192.0000                  TOTAL IN =          26.2960

          OUT:                                     OUT:
          ----                                     ----
               AG WELLS  =           0.0000                 AG WELLS  =           0.0000
      DIVERSION SEGMENTS =           0.0000        DIVERSION SEGMENTS =           0.0000
           GW IRRIGATION =   643291968.0000             GW IRRIGATION =          16.5041
           SW IRRIGATION =   310209856.0000             SW IRRIGATION =           9.7921
        SYSTEM LOSSES GW =           0.0000          SYSTEM LOSSES GW =           0.0000
        SYSTEM LOSSES SW =           0.0000          SYSTEM LOSSES SW =           0.0000

               TOTAL OUT =   953501824.0000                 TOTAL OUT =          26.2962

                IN - OUT =       -5632.0000                  IN - OUT =      -1.9455E-04

     PERCENT DISCREPANCY =          -0.00         PERCENT DISCREPANCY =          -0.00



1
  VOLUMETRIC BUDGET FOR ENTIRE MODEL AT END OF TIME STEP   30, STRESS PERIOD  21
  ------------------------------------------------------------------------------

     CUMULATIVE VOLUMES      L**3       RATES FOR THIS TIME STEP      L**3/T
     ------------------                 ------------------------

           IN:                                      IN:
           ---                                      ---
             STORAGE     =   829329856.0000               STORAGE     =          28.2879
       CONSTANT HEAD     =           0.0000         CONSTANT HEAD     =           0.0000
     HEAD DEP BOUNDS     =    15175491.0000       HEAD DEP BOUNDS     =           0.2884
      STREAM LEAKAGE     =   621933824.0000        STREAM LEAKAGE     =          11.6468
        UZF RECHARGE     =       73223.9531          UZF RECHARGE     =           0.0000
               GW ET     =           0.0000                 GW ET     =           0.0000
     SURFACE LEAKAGE     =           0.0000       SURFACE LEAKAGE     =           0.0000
           AG WELLS      =           0.0000             AG WELLS      =           0.0000

                TOTAL IN =  1466512384.0000                  TOTAL IN =          40.2231

          OUT:                                     OUT:
          ----                                     ----
             STORAGE     =   269873696.0000               STORAGE     =          13.3657
       CONSTANT HEAD     =           0.0000         CONSTANT HEAD     =           0.0000
     HEAD DEP BOUNDS     =    15184248.0000       HEAD DEP BOUNDS     =           0.2865
      STREAM LEAKAGE     =   538171072.0000        STREAM LEAKAGE     =          10.0668
        UZF RECHARGE     =           0.0000          UZF RECHARGE     =           0.0000
               GW ET     =           0.0000                 GW ET     =           0.0000
     SURFACE LEAKAGE     =           0.0000       SURFACE LEAKAGE     =           0.0000
           AG WELLS      =   643291968.0000             AG WELLS      =          16.5041

               TOTAL OUT =  1466521088.0000                 TOTAL OUT =          40.2231

                IN - OUT =       -8704.0000                  IN - OUT =       1.5259E-05

     PERCENT DISCREPANCY =          -0.00         PERCENT DISCREPANCY =           0.00






         TIME SUMMARY AT END OF TIME STEP   30 IN STRESS PERIOD   21
                    SECONDS     MINUTES      HOURS       DAYS        YEARS
                    -----------------------------------------------------------
   TIME STEP LENGTH  87667.      1461.1      24.352      1.0147     2.77799E-03
 STRESS PERIOD TIME 2.63000E+06  43833.      730.56      30.440     8.33397E-02
         TOTAL TIME 5.26866E+07 8.78110E+05  14635.      609.80      1.6695    
1
1
                            STRESS PERIOD NO.   22, LENGTH =   2630000.    
                            -----------------------------------------------

                              NUMBER OF TIME STEPS =    30

                               MULTIPLIER FOR DELT =     1.000

                            INITIAL TIME STEP SIZE =   87666.66    

 REUSING NON-PARAMETER GHB CELLS FROM LAST STRESS PERIOD

      2 GHB CELLS

 REUSING STREAM SEGMENT DATA FROM LAST STRESS PERIOD



            AREAL INFILTRATION RATE
 READING ON UNIT   19 WITH FORMAT: (FREE)              

            1           2           3           4           5           6           7           8           9          10
 ........................................................................................................................
   1   1.0000E-10  2.0000E-10   0.000       0.000       0.000       0.000       0.000       0.000       0.000       0.000    
   2   2.0000E-10  1.0000E-10  2.0000E-10   0.000       0.000      8.0000E-10  8.0000E-10  5.0000E-10   0.000       0.000    
   3    0.000      5.0000E-10  1.0000E-10  1.0000E-10  8.0000E-10  8.0000E-10  5.0000E-10  5.0000E-10   0.000       0.000    
   4   8.0000E-10  5.0000E-10  1.0000E-10  1.0000E-10  1.0000E-10  1.0000E-10  1.0000E-10  1.0000E-10  2.0000E-10   0.000    
   5   8.0000E-10  5.0000E-10  1.0000E-10  1.0000E-10  1.0000E-10  1.0000E-10  1.0000E-10  1.0000E-10  1.0000E-10  1.0000E-10
   6   8.0000E-10  5.0000E-10  5.0000E-10  2.0000E-10  2.0000E-10  1.0000E-10  1.0000E-10  1.0000E-10  1.0000E-10  5.0000E-10
   7   8.0000E-10  5.0000E-10  5.0000E-10  2.0000E-10  2.0000E-10  1.0000E-10  1.0000E-10  2.0000E-10  2.0000E-10   0.000    
   8    0.000      5.0000E-10  5.0000E-10  2.0000E-10  2.0000E-10  1.0000E-10  1.0000E-10  2.0000E-10  5.0000E-10   0.000    
   9    0.000      5.0000E-10  5.0000E-10  2.0000E-10  2.0000E-10  1.0000E-10  1.0000E-10  2.0000E-10  5.0000E-10   0.000    
  10    0.000      5.0000E-10  5.0000E-10  2.0000E-10  2.0000E-10  1.0000E-10  1.0000E-10  2.0000E-10  5.0000E-10  8.0000E-10
  11    0.000      1.0000E-10  1.0000E-10  1.0000E-10  1.0000E-10  1.0000E-10  1.0000E-10  2.0000E-10  5.0000E-10   0.000    
  12   1.0000E-10  1.0000E-10  1.0000E-10  1.0000E-10  1.0000E-10  1.0000E-10  1.0000E-10  1.0000E-10  2.0000E-10   0.000    
  13   1.0000E-10  1.0000E-10  2.0000E-10  2.0000E-10  2.0000E-10  2.0000E-10  2.0000E-10  1.0000E-10  1.0000E-10   0.000    
  14    0.000      2.0000E-10  5.0000E-10  5.0000E-10  5.0000E-10  5.0000E-10  5.0000E-10  2.0000E-10  1.0000E-10   0.000    
  15    0.000       0.000      8.0000E-10  8.0000E-10  8.0000E-10  8.0000E-10   0.000       0.000       0.000       0.000    

                  ET RATE =  7.500000E-08

 USING ET EXTINCTION DEPTH FROM PREVIOUS STRESS PERIOD. CURRENT PERIOD IS:      22

 USING EXTINCTION WATER CONTENT FROM PREVIOUS STRESS PERIOD. CURRENT PERIOD IS:      22

 USING AIR ENTRY PRESSURE FROM PREVIOUS STRESS PERIOD. CURRENT PERIOD IS:      22

 USING ROOT PRESSURE HEAD FROM PREVIOUS STRESS PERIOD. CURRENT PERIOD IS:      22

 USING ROOT ACTIVITY FROM PREVIOUS STRESS PERIOD. CURRENT PERIOD IS:      22

 PROCESSING AG STRESS PERIOD DATA

 READING AG STRESS PERIOD DATA

 READING IRRIGATION SEGMENT

 READING IRRIGATION WELL

 READING SUPPLEMENTAL WELL

 END PROCESSING AG STRESS PERIOD DATA OPTIONS
 
 SOLVING FOR HEAD 
                                                   Max.-Head-Change                         Max.-Flux-Residual
  Residual-Control   Outer-Iter.   Inner-Iter.     Column Row Layer    Maximum-Head-Change  Column Row Layer    Maximum-Flux-Residual          L2-NORM 
          0                 1           2             5    8     1       0.9630574782E-01       5    8    1         0.5210493738E+01      0.1325012913E+02
          0                 2           2             5    8     1      -0.1117875902E-01       5    8    1        -0.6207469470E+00      0.1552399489E+01
          0                 3           2             5    7     1       0.2473722085E-02       5    8    1         0.1398874610E+00      0.3410034685E+00
          0                 4           2             5    7     1      -0.1135895816E-03       5    8    1        -0.6589745813E-02      0.1604884348E-01
          0                 5           1             4    7     1      -0.1930579530E-04       4    7    1        -0.1094662392E-02      0.2865833240E-02

    ------------------------------------------------
       NWT REQUIRED            5 OUTER ITERATIONS 
       AND A TOTAL OF          9 INNER ITERATIONS.
    ------------------------------------------------

 NO OUTPUT CONTROL FOR STRESS PERIOD   22   TIME STEP    1
 
 SOLVING FOR HEAD 
                                                   Max.-Head-Change                         Max.-Flux-Residual
  Residual-Control   Outer-Iter.   Inner-Iter.     Column Row Layer    Maximum-Head-Change  Column Row Layer    Maximum-Flux-Residual          L2-NORM 
          0                 1           2             5    6     1       0.9272253224E-01       5    8    1         0.5004694969E+01      0.1287600483E+02
          0                 2           2             4    7     1      -0.6095208028E-01       5    8    1        -0.3317124961E+01      0.8102253414E+01
          0                 3           2             4    7     1       0.4150594837E-02       5    8    1         0.2321983411E+00      0.5681024394E+00
          0                 4           2             4    7     1      -0.1651561264E-03       5    8    1        -0.9496927723E-02      0.2330797647E-01
          0                 5           1             4    7     1       0.2036446630E-05       5    8    1         0.1203553588E-03      0.3084003849E-03

    ------------------------------------------------
       NWT REQUIRED            5 OUTER ITERATIONS 
       AND A TOTAL OF          9 INNER ITERATIONS.
    ------------------------------------------------

 NO OUTPUT CONTROL FOR STRESS PERIOD   22   TIME STEP    2
 
 SOLVING FOR HEAD 
                                                   Max.-Head-Change                         Max.-Flux-Residual
  Residual-Control   Outer-Iter.   Inner-Iter.     Column Row Layer    Maximum-Head-Change  Column Row Layer    Maximum-Flux-Residual          L2-NORM 
          0                 1           2             5    6     1       0.9081201410E-01       5    6    1         0.4897743792E+01      0.1267224028E+02
          0                 2           2             5    6     1      -0.8833417750E-02       5    6    1        -0.4897664174E+00      0.1267306388E+01
          0                 3           2             5    6     1       0.6015241248E-03       5    6    1         0.3428373937E-01      0.8871095904E-01
          0                 4           1             5    6     1      -0.2393515199E-04       5    6    1        -0.1402206545E-02      0.3628241823E-02

    ------------------------------------------------
       NWT REQUIRED            4 OUTER ITERATIONS 
       AND A TOTAL OF          7 INNER ITERATIONS.
    ------------------------------------------------

 NO OUTPUT CONTROL FOR STRESS PERIOD   22   TIME STEP    3
 
 SOLVING FOR HEAD 
                                                   Max.-Head-Change                         Max.-Flux-Residual
  Residual-Control   Outer-Iter.   Inner-Iter.     Column Row Layer    Maximum-Head-Change  Column Row Layer    Maximum-Flux-Residual          L2-NORM 
          0                 1           2             5    7     1       0.8870485368E-01       5    6    1         0.4719563511E+01      0.1232681789E+02
          0                 2           2             4    7     1      -0.6089153963E-01       5    6    1        -0.3288612467E+01      0.8055380928E+01
          0                 3           2             4    7     1       0.4146470828E-02       5    6    1         0.2302024436E+00      0.5648235929E+00
          0                 4           2             4    7     1      -0.1649920347E-03       5    6    1        -0.9415295513E-02      0.2317409657E-01
          0                 5           1             4    7     1       0.2034423082E-05       5    6    1         0.1193208109E-03      0.3066679289E-03

    ------------------------------------------------
       NWT REQUIRED            5 OUTER ITERATIONS 
       AND A TOTAL OF          9 INNER ITERATIONS.
    ------------------------------------------------

 NO OUTPUT CONTROL FOR STRESS PERIOD   22   TIME STEP    4
 
 SOLVING FOR HEAD 
                                                   Max.-Head-Change                         Max.-Flux-Residual
  Residual-Control   Outer-Iter.   Inner-Iter.     Column Row Layer    Maximum-Head-Change  Column Row Layer    Maximum-Flux-Residual          L2-NORM 
          0                 1           2             5    7     1       0.8773603957E-01       5    7    1         0.4651050430E+01      0.1214847466E+02
          0                 2           2             5    7     1      -0.8534284925E-02       5    7    1        -0.4651024580E+00      0.1214947336E+01
          0                 3           2             5    7     1       0.5811535489E-03       5    7    1         0.3255721057E-01      0.8504584853E-01
          0                 4           1             5    7     1      -0.2312464828E-04       5    7    1        -0.1331591662E-02      0.3478334849E-02

    ------------------------------------------------
       NWT REQUIRED            4 OUTER ITERATIONS 
       AND A TOTAL OF          7 INNER ITERATIONS.
    ------------------------------------------------

 NO OUTPUT CONTROL FOR STRESS PERIOD   22   TIME STEP    5
 
 SOLVING FOR HEAD 
                                                   Max.-Head-Change                         Max.-Flux-Residual
  Residual-Control   Outer-Iter.   Inner-Iter.     Column Row Layer    Maximum-Head-Change  Column Row Layer    Maximum-Flux-Residual          L2-NORM 
          0                 1           2             5    7     1       0.8600767099E-01       5    7    1         0.4559661800E+01      0.1182926381E+02
          0                 2           2             4    7     1      -0.6081477783E-01       5    7    1        -0.3272627793E+01      0.8012258944E+01
          0                 3           2             4    7     1       0.4141242427E-02       5    7    1         0.2290830042E+00      0.5618065689E+00
          0                 4           2             4    7     1      -0.1647839976E-03       5    7    1        -0.9369512747E-02      0.2305085449E-01
          0                 5           1             4    7     1       0.2031858166E-05       5    7    1         0.1187406117E-03      0.3049994561E-03

    ------------------------------------------------
       NWT REQUIRED            5 OUTER ITERATIONS 
       AND A TOTAL OF          9 INNER ITERATIONS.
    ------------------------------------------------

 NO OUTPUT CONTROL FOR STRESS PERIOD   22   TIME STEP    6
 
 SOLVING FOR HEAD 
                                                   Max.-Head-Change                         Max.-Flux-Residual
  Residual-Control   Outer-Iter.   Inner-Iter.     Column Row Layer    Maximum-Head-Change  Column Row Layer    Maximum-Flux-Residual          L2-NORM 
          0                 1           2             4    7     1       0.8528505215E-01       5    7    1         0.4510869290E+01      0.1167281429E+02
          0                 2           2             4    7     1      -0.8295910413E-02       5    7    1        -0.4510853356E+00      0.1167381839E+01
          0                 3           2             4    7     1       0.5649207400E-03       5    7    1         0.3157600220E-01      0.8171629605E-01
          0                 4           1             4    7     1      -0.2247872441E-04       5    7    1        -0.1291460227E-02      0.3342150255E-02

    ------------------------------------------------
       NWT REQUIRED            4 OUTER ITERATIONS 
       AND A TOTAL OF          7 INNER ITERATIONS.
    ------------------------------------------------

 NO OUTPUT CONTROL FOR STRESS PERIOD   22   TIME STEP    7
 
 SOLVING FOR HEAD 
                                                   Max.-Head-Change                         Max.-Flux-Residual
  Residual-Control   Outer-Iter.   Inner-Iter.     Column Row Layer    Maximum-Head-Change  Column Row Layer    Maximum-Flux-Residual          L2-NORM 
          0                 1           2             4    7     1       0.8467336232E-01       4    7    1         0.4431151316E+01      0.1137650398E+02
          0                 2           2             4    7     1      -0.6072448445E-01       4    7    1        -0.3259779450E+01      0.7972474584E+01
          0                 3           2             4    7     1       0.4135092759E-02       4    7    1         0.2281834068E+00      0.5590223934E+00
          0                 4           2             4    7     1      -0.1645393015E-03       4    7    1        -0.9332720141E-02      0.2293699919E-01
          0                 5           1             4    7     1       0.2028840935E-05       4    7    1         0.1182743292E-03      0.3036951536E-03

    ------------------------------------------------
       NWT REQUIRED            5 OUTER ITERATIONS 
       AND A TOTAL OF          9 INNER ITERATIONS.
    ------------------------------------------------

 NO OUTPUT CONTROL FOR STRESS PERIOD   22   TIME STEP    8
 
 SOLVING FOR HEAD 
                                                   Max.-Head-Change                         Max.-Flux-Residual
  Residual-Control   Outer-Iter.   Inner-Iter.     Column Row Layer    Maximum-Head-Change  Column Row Layer    Maximum-Flux-Residual          L2-NORM 
          0                 1           2             4    7     1       0.8429664628E-01       4    7    1         0.4412445543E+01      0.1123900276E+02
          0                 2           2             4    7     1      -0.8199779590E-02       4    7    1        -0.4412456495E+00      0.1124008781E+01
          0                 3           2             4    7     1       0.5583744493E-03       4    7    1         0.3088719845E-01      0.7868020091E-01
          0                 4           1             4    7     1      -0.2221824200E-04       4    7    1        -0.1263288223E-02      0.3217987555E-02

    ------------------------------------------------
       NWT REQUIRED            4 OUTER ITERATIONS 
       AND A TOTAL OF          7 INNER ITERATIONS.
    ------------------------------------------------

 NO OUTPUT CONTROL FOR STRESS PERIOD   22   TIME STEP    9
 
 SOLVING FOR HEAD 
                                                   Max.-Head-Change                         Max.-Flux-Residual
  Residual-Control   Outer-Iter.   Inner-Iter.     Column Row Layer    Maximum-Head-Change  Column Row Layer    Maximum-Flux-Residual          L2-NORM 
          0                 1           2             4    7     1       0.8363056785E-01       4    7    1         0.4379796349E+01      0.1096279133E+02
          0                 2           2             4    7     1      -0.6062303116E-01       4    7    1        -0.3254644786E+01      0.7935672352E+01
          0                 3           2             4    7     1       0.4128183306E-02       4    7    1         0.2278239242E+00      0.5564463583E+00
          0                 4           2             4    7     1      -0.1642643721E-03       4    7    1        -0.9318017546E-02      0.2283168435E-01
          0                 5           1             4    7     1       0.2025450918E-05       4    7    1         0.1180879992E-03      0.3023785076E-03

    ------------------------------------------------
       NWT REQUIRED            5 OUTER ITERATIONS 
       AND A TOTAL OF          9 INNER ITERATIONS.
    ------------------------------------------------

 NO OUTPUT CONTROL FOR STRESS PERIOD   22   TIME STEP   10
 
 SOLVING FOR HEAD 
                                                   Max.-Head-Change                         Max.-Flux-Residual
  Residual-Control   Outer-Iter.   Inner-Iter.     Column Row Layer    Maximum-Head-Change  Column Row Layer    Maximum-Flux-Residual          L2-NORM 
          0                 1           2             4    7     1       0.8320499694E-01       4    7    1         0.4358270722E+01      0.1084177236E+02
          0                 2           2             4    7     1      -0.8093603227E-02       4    7    1        -0.4358289218E+00      0.1084293387E+01
          0                 3           2             4    7     1       0.5511441218E-03       4    7    1         0.3050802021E-01      0.7590015484E-01
          0                 4           1             4    7     1      -0.2193054124E-04       4    7    1        -0.1247779856E-02      0.3104290009E-02

    ------------------------------------------------
       NWT REQUIRED            4 OUTER ITERATIONS 
       AND A TOTAL OF          7 INNER ITERATIONS.
    ------------------------------------------------

 NO OUTPUT CONTROL FOR STRESS PERIOD   22   TIME STEP   11
 
 SOLVING FOR HEAD 
                                                   Max.-Head-Change                         Max.-Flux-Residual
  Residual-Control   Outer-Iter.   Inner-Iter.     Column Row Layer    Maximum-Head-Change  Column Row Layer    Maximum-Flux-Residual          L2-NORM 
          0                 1           2             4    7     1       0.8249497412E-01       4    7    1         0.4323073877E+01      0.1058328535E+02
          0                 2           2             4    7     1      -0.6051253469E-01       4    7    1        -0.3248973204E+01      0.7901546248E+01
          0                 3           2             4    7     1       0.4120658189E-02       4    7    1         0.2274268666E+00      0.5540570005E+00
          0                 4           2             4    7     1      -0.1639649441E-03       4    7    1        -0.9301778093E-02      0.2273392477E-01
          0                 5           1             4    7     1       0.2021758348E-05       4    7    1         0.1178821831E-03      0.3011451687E-03

    ------------------------------------------------
       NWT REQUIRED            5 OUTER ITERATIONS 
       AND A TOTAL OF          9 INNER ITERATIONS.
    ------------------------------------------------

 NO OUTPUT CONTROL FOR STRESS PERIOD   22   TIME STEP   12
 
 SOLVING FOR HEAD 
                                                   Max.-Head-Change                         Max.-Flux-Residual
  Residual-Control   Outer-Iter.   Inner-Iter.     Column Row Layer    Maximum-Head-Change  Column Row Layer    Maximum-Flux-Residual          L2-NORM 
          0                 1           2             4    7     1       0.8203035164E-01       4    7    1         0.4299270678E+01      0.1047666910E+02
          0                 2           2             4    7     1      -0.7979351294E-02       4    7    1        -0.4299295170E+00      0.1047790328E+01
          0                 3           2             4    7     1       0.5433639001E-03       4    7    1         0.3009505602E-01      0.7334501459E-01
          0                 4           1             4    7     1      -0.2162095920E-04       4    7    1        -0.1230889610E-02      0.2999872693E-02

    ------------------------------------------------
       NWT REQUIRED            4 OUTER ITERATIONS 
       AND A TOTAL OF          7 INNER ITERATIONS.
    ------------------------------------------------

 NO OUTPUT CONTROL FOR STRESS PERIOD   22   TIME STEP   13
 
 SOLVING FOR HEAD 
                                                   Max.-Head-Change                         Max.-Flux-Residual
  Residual-Control   Outer-Iter.   Inner-Iter.     Column Row Layer    Maximum-Head-Change  Column Row Layer    Maximum-Flux-Residual          L2-NORM 
          0                 1           2             4    7     1       0.8128580983E-01       4    7    1         0.4262048140E+01      0.1023388615E+02
          0                 2           2             4    7     1      -0.6039486808E-01       4    7    1        -0.3242871154E+01      0.7869830711E+01
          0                 3           2             4    7     1       0.4112644938E-02       4    7    1         0.2269996845E+00      0.5518358011E+00
          0                 4           2             4    7     1      -0.1636460922E-03       4    7    1        -0.9284306497E-02      0.2264298130E-01
          0                 5           1             4    7     1       0.2017827076E-05       4    7    1         0.1176607702E-03      0.2999317606E-03

    ------------------------------------------------
       NWT REQUIRED            5 OUTER ITERATIONS 
       AND A TOTAL OF          9 INNER ITERATIONS.
    ------------------------------------------------

 NO OUTPUT CONTROL FOR STRESS PERIOD   22   TIME STEP   14
 
 SOLVING FOR HEAD 
                                                   Max.-Head-Change                         Max.-Flux-Residual
  Residual-Control   Outer-Iter.   Inner-Iter.     Column Row Layer    Maximum-Head-Change  Column Row Layer    Maximum-Flux-Residual          L2-NORM 
          0                 1           2             4    7     1       0.8079082540E-01       4    7    1         0.4236449487E+01      0.1013991730E+02
          0                 2           2             4    7     1      -0.7858786267E-02       4    7    1        -0.4236478674E+00      0.1014122149E+01
          0                 3           2             4    7     1       0.5351537996E-03       4    7    1         0.2965533590E-01      0.7098819616E-01
          0                 4           1             4    7     1      -0.2129427197E-04       4    7    1        -0.1212905066E-02      0.2903403420E-02

    ------------------------------------------------
       NWT REQUIRED            4 OUTER ITERATIONS 
       AND A TOTAL OF          7 INNER ITERATIONS.
    ------------------------------------------------

 NO OUTPUT CONTROL FOR STRESS PERIOD   22   TIME STEP   15
 
 SOLVING FOR HEAD 
                                                   Max.-Head-Change                         Max.-Flux-Residual
  Residual-Control   Outer-Iter.   Inner-Iter.     Column Row Layer    Maximum-Head-Change  Column Row Layer    Maximum-Flux-Residual          L2-NORM 
          0                 1           2             4    7     1       0.8001973515E-01       4    7    1         0.4197643908E+01      0.9911097130E+01
          0                 2           2             4    7     1      -0.6027165417E-01       4    7    1        -0.3236431137E+01      0.7840292571E+01
          0                 3           2             4    7     1       0.4104254045E-02       4    7    1         0.2265488517E+00      0.5497665159E+00
          0                 4           2             4    7     1      -0.1633122132E-03       4    7    1        -0.9265867547E-02      0.2255825104E-01
          0                 5           1             4    7     1       0.2013710419E-05       4    7    1         0.1174271085E-03      0.2990158322E-03

    ------------------------------------------------
       NWT REQUIRED            5 OUTER ITERATIONS 
       AND A TOTAL OF          9 INNER ITERATIONS.
    ------------------------------------------------

 NO OUTPUT CONTROL FOR STRESS PERIOD   22   TIME STEP   16
 
 SOLVING FOR HEAD 
                                                   Max.-Head-Change                         Max.-Flux-Residual
  Residual-Control   Outer-Iter.   Inner-Iter.     Column Row Layer    Maximum-Head-Change  Column Row Layer    Maximum-Flux-Residual          L2-NORM 
          0                 1           2             4    7     1       0.7950195973E-01       4    7    1         0.4170670841E+01      0.9828282686E+01
          0                 2           2             4    7     1      -0.7733420233E-02       4    7    1        -0.4170703637E+00      0.9829654572E+00
          0                 3           2             4    7     1       0.5266167846E-03       4    7    1         0.2919490705E-01      0.6880721380E-01
          0                 4           1             4    7     1      -0.2095457682E-04       4    7    1        -0.1194073525E-02      0.2814190119E-02

    ------------------------------------------------
       NWT REQUIRED            4 OUTER ITERATIONS 
       AND A TOTAL OF          7 INNER ITERATIONS.
    ------------------------------------------------

 NO OUTPUT CONTROL FOR STRESS PERIOD   22   TIME STEP   17
 
 SOLVING FOR HEAD 
                                                   Max.-Head-Change                         Max.-Flux-Residual
  Residual-Control   Outer-Iter.   Inner-Iter.     Column Row Layer    Maximum-Head-Change  Column Row Layer    Maximum-Flux-Residual          L2-NORM 
          0                 1           2             4    7     1       0.7871149365E-01       4    7    1         0.4130681434E+01      0.9611933448E+01
          0                 2           2             4    7     1      -0.6014432910E-01       4    7    1        -0.3229735197E+01      0.7812727461E+01
          0                 3           2             4    7     1       0.4095583294E-02       4    7    1         0.2260801106E+00      0.5478329337E+00
          0                 4           2             4    7     1      -0.1629671979E-03       4    7    1        -0.9246696148E-02      0.2247845641E-01
          0                 5           1             4    7     1       0.2009456207E-05       4    7    1         0.1171841352E-03      0.2981554553E-03

    ------------------------------------------------
       NWT REQUIRED            5 OUTER ITERATIONS 
       AND A TOTAL OF          9 INNER ITERATIONS.
    ------------------------------------------------

 NO OUTPUT CONTROL FOR STRESS PERIOD   22   TIME STEP   18
 
 SOLVING FOR HEAD 
                                                   Max.-Head-Change                         Max.-Flux-Residual
  Residual-Control   Outer-Iter.   Inner-Iter.     Column Row Layer    Maximum-Head-Change  Column Row Layer    Maximum-Flux-Residual          L2-NORM 
          0                 1           2             4    7     1       0.7817761394E-01       4    7    1         0.4102706305E+01      0.9539021591E+01
          0                 2           2             4    7     1      -0.7604601598E-02       4    7    1        -0.4102741807E+00      0.9540460147E+00
          0                 3           2             4    7     1       0.5178446728E-03       4    7    1         0.2871917147E-01      0.6678287630E-01
          0                 4           1             4    7     1      -0.2060552606E-04       4    7    1        -0.1174615904E-02      0.2731405855E-02

    ------------------------------------------------
       NWT REQUIRED            4 OUTER ITERATIONS 
       AND A TOTAL OF          7 INNER ITERATIONS.
    ------------------------------------------------

 NO OUTPUT CONTROL FOR STRESS PERIOD   22   TIME STEP   19
 
 SOLVING FOR HEAD 
                                                   Max.-Head-Change                         Max.-Flux-Residual
  Residual-Control   Outer-Iter.   Inner-Iter.     Column Row Layer    Maximum-Head-Change  Column Row Layer    Maximum-Flux-Residual          L2-NORM 
          0                 1           2             4    7     1       0.7737384211E-01       4    7    1         0.4061872067E+01      0.9333845868E+01
          0                 2           2             4    7     1      -0.6001413552E-01       4    7    1        -0.3222854485E+01      0.7786956294E+01
          0                 3           2             4    7     1       0.4086717291E-02       4    7    1         0.2255984410E+00      0.5460222375E+00
          0                 4           2             4    7     1      -0.1626144125E-03       4    7    1        -0.9226995908E-02      0.2240266595E-01
          0                 5           1             4    7     1       0.2005106223E-05       4    7    1         0.1169344730E-03      0.2968038687E-03

    ------------------------------------------------
       NWT REQUIRED            5 OUTER ITERATIONS 
       AND A TOTAL OF          9 INNER ITERATIONS.
    ------------------------------------------------

 NO OUTPUT CONTROL FOR STRESS PERIOD   22   TIME STEP   20
 
 SOLVING FOR HEAD 
                                                   Max.-Head-Change                         Max.-Flux-Residual
  Residual-Control   Outer-Iter.   Inner-Iter.     Column Row Layer    Maximum-Head-Change  Column Row Layer    Maximum-Flux-Residual          L2-NORM 
          0                 1           2             4    7     1       0.7682949001E-01       4    7    1         0.4033209984E+01      0.9269752345E+01
          0                 2           2             4    7     1      -0.7473468876E-02       4    7    1        -0.4033247440E+00      0.9271255809E+00
          0                 3           2             4    7     1       0.5089149917E-03       4    7    1         0.2823270884E-01      0.6489841008E-01
          0                 4           1             4    7     1      -0.2025020613E-04       4    7    1        -0.1154719576E-02      0.2654306127E-02

    ------------------------------------------------
       NWT REQUIRED            4 OUTER ITERATIONS 
       AND A TOTAL OF          7 INNER ITERATIONS.
    ------------------------------------------------

 NO OUTPUT CONTROL FOR STRESS PERIOD   22   TIME STEP   21
 
 SOLVING FOR HEAD 
                                                   Max.-Head-Change                         Max.-Flux-Residual
  Residual-Control   Outer-Iter.   Inner-Iter.     Column Row Layer    Maximum-Head-Change  Column Row Layer    Maximum-Flux-Residual          L2-NORM 
          0                 1           2             4    7     1       0.7601789472E-01       4    7    1         0.3991837001E+01      0.9074644867E+01
          0                 2           2             4    7     1      -0.5988215605E-01       4    7    1        -0.3215851137E+01      0.7762820833E+01
          0                 3           2             4    7     1       0.4077729747E-02       4    7    1         0.2251081914E+00      0.5443310453E+00
          0                 4           2             4    7     1      -0.1622567906E-03       4    7    1        -0.9206944745E-02      0.2233488150E-01
          0                 5           1             4    7     1       0.2000696199E-05       4    7    1         0.1166803427E-03      0.2957335405E-03

    ------------------------------------------------
       NWT REQUIRED            5 OUTER ITERATIONS 
       AND A TOTAL OF          9 INNER ITERATIONS.
    ------------------------------------------------

 NO OUTPUT CONTROL FOR STRESS PERIOD   22   TIME STEP   22
 
 SOLVING FOR HEAD 
                                                   Max.-Head-Change                         Max.-Flux-Residual
  Residual-Control   Outer-Iter.   Inner-Iter.     Column Row Layer    Maximum-Head-Change  Column Row Layer    Maximum-Flux-Residual          L2-NORM 
          0                 1           2             4    7     1       0.7546789335E-01       4    7    1         0.3962758055E+01      0.9018448795E+01
          0                 2           2             4    7     1      -0.7341024697E-02       4    7    1        -0.3962796846E+00      0.9020004007E+00
          0                 3           2             4    7     1       0.4998960137E-03       4    7    1         0.2773955320E-01      0.6313966988E-01
          0                 4           1             4    7     1      -0.1989133245E-04       4    7    1        -0.1134549475E-02      0.2582382855E-02

    ------------------------------------------------
       NWT REQUIRED            4 OUTER ITERATIONS 
       AND A TOTAL OF          7 INNER ITERATIONS.
    ------------------------------------------------

 NO OUTPUT CONTROL FOR STRESS PERIOD   22   TIME STEP   23
 
 SOLVING FOR HEAD 
                                                   Max.-Head-Change                         Max.-Flux-Residual
  Residual-Control   Outer-Iter.   Inner-Iter.     Column Row Layer    Maximum-Head-Change  Column Row Layer    Maximum-Flux-Residual          L2-NORM 
          0                 1           2             4    7     1       0.7465278317E-01       4    7    1         0.3921088849E+01      0.8832426186E+01
          0                 2           2             4    7     1      -0.5974928025E-01       4    7    1        -0.3208776424E+01      0.7740179259E+01
          0                 3           2             4    7     1       0.4068681227E-02       4    7    1         0.2246129503E+00      0.5427359641E+00
          0                 4           2             4    7     1      -0.1618967426E-03       4    7    1        -0.9186689399E-02      0.2226884813E-01
          0                 5           1             4    7     1       0.1996256939E-05       4    7    1         0.1164236692E-03      0.2950210850E-03

    ------------------------------------------------
       NWT REQUIRED            5 OUTER ITERATIONS 
       AND A TOTAL OF          9 INNER ITERATIONS.
    ------------------------------------------------

 NO OUTPUT CONTROL FOR STRESS PERIOD   22   TIME STEP   24
 
 SOLVING FOR HEAD 
                                                   Max.-Head-Change                         Max.-Flux-Residual
  Residual-Control   Outer-Iter.   Inner-Iter.     Column Row Layer    Maximum-Head-Change  Column Row Layer    Maximum-Flux-Residual          L2-NORM 
          0                 1           2             4    7     1       0.7410149835E-01       4    7    1         0.3891838396E+01      0.8783336966E+01
          0                 2           2             4    7     1      -0.7208113009E-02       4    7    1        -0.3891878010E+00      0.8784969129E+00
          0                 3           2             4    7     1       0.4908452078E-03       4    7    1         0.2724312035E-01      0.6149441384E-01
          0                 4           1             4    7     1      -0.1953119248E-04       4    7    1        -0.1114245349E-02      0.2515100850E-02

    ------------------------------------------------
       NWT REQUIRED            4 OUTER ITERATIONS 
       AND A TOTAL OF          7 INNER ITERATIONS.
    ------------------------------------------------

 NO OUTPUT CONTROL FOR STRESS PERIOD   22   TIME STEP   25
 
 SOLVING FOR HEAD 
                                                   Max.-Head-Change                         Max.-Flux-Residual
  Residual-Control   Outer-Iter.   Inner-Iter.     Column Row Layer    Maximum-Head-Change  Column Row Layer    Maximum-Flux-Residual          L2-NORM 
          0                 1           2             4    7     1       0.7328689990E-01       4    7    1         0.3850099074E+01      0.8605561689E+01
          0                 2           2             4    7     1      -0.5961632563E-01       4    7    1        -0.3201677502E+01      0.7718906718E+01
          0                 3           2             4    7     1       0.4059627395E-02       4    7    1         0.2241160182E+00      0.5412346371E+00
          0                 4           2             4    7     1      -0.1615364827E-03       4    7    1        -0.9166364889E-02      0.2220647714E-01
          0                 5           1             4    7     1       0.1991814879E-05       4    7    1         0.1161660873E-03      0.2942379669E-03

    ------------------------------------------------
       NWT REQUIRED            5 OUTER ITERATIONS 
       AND A TOTAL OF          9 INNER ITERATIONS.
    ------------------------------------------------

 NO OUTPUT CONTROL FOR STRESS PERIOD   22   TIME STEP   26
 
 SOLVING FOR HEAD 
                                                   Max.-Head-Change                         Max.-Flux-Residual
  Residual-Control   Outer-Iter.   Inner-Iter.     Column Row Layer    Maximum-Head-Change  Column Row Layer    Maximum-Flux-Residual          L2-NORM 
          0                 1           2             4    7     1       0.7273790658E-01       4    7    1         0.3820878852E+01      0.8562878775E+01
          0                 2           2             4    7     1      -0.7075473375E-02       4    7    1        -0.3820918874E+00      0.8564575290E+00
          0                 3           2             4    7     1       0.4818129343E-03       4    7    1         0.2674640581E-01      0.5995168159E-01
          0                 4           1             4    7     1      -0.1917179001E-04       4    7    1        -0.1093929698E-02      0.2452018249E-02

    ------------------------------------------------
       NWT REQUIRED            4 OUTER ITERATIONS 
       AND A TOTAL OF          7 INNER ITERATIONS.
    ------------------------------------------------

 NO OUTPUT CONTROL FOR STRESS PERIOD   22   TIME STEP   27
 
 SOLVING FOR HEAD 
                                                   Max.-Head-Change                         Max.-Flux-Residual
  Residual-Control   Outer-Iter.   Inner-Iter.     Column Row Layer    Maximum-Head-Change  Column Row Layer    Maximum-Flux-Residual          L2-NORM 
          0                 1           2             4    7     1       0.7192696594E-01       4    7    1         0.3779247330E+01      0.8392595058E+01
          0                 2           2             4    7     1      -0.5948394694E-01       4    7    1        -0.3194592347E+01      0.7698890397E+01
          0                 3           2             4    7     1       0.4050612826E-02       4    7    1         0.2236200526E+00      0.5398224160E+00
          0                 4           2             4    7     1      -0.1611777850E-03       4    7    1        -0.9146079888E-02      0.2214789234E-01
          0                 5           1             4    7     1       0.1987391973E-05       4    7    1         0.1159090211E-03      0.2935389227E-03

    ------------------------------------------------
       NWT REQUIRED            5 OUTER ITERATIONS 
       AND A TOTAL OF          9 INNER ITERATIONS.
    ------------------------------------------------

 NO OUTPUT CONTROL FOR STRESS PERIOD   22   TIME STEP   28
 
 SOLVING FOR HEAD 
                                                   Max.-Head-Change                         Max.-Flux-Residual
  Residual-Control   Outer-Iter.   Inner-Iter.     Column Row Layer    Maximum-Head-Change  Column Row Layer    Maximum-Flux-Residual          L2-NORM 
          0                 1           2             4    7     1       0.7138328319E-01       4    7    1         0.3750227856E+01      0.8355735805E+01
          0                 2           2             4    7     1      -0.6943705612E-02       4    7    1        -0.3750267945E+00      0.8357496605E+00
          0                 3           2             4    7     1       0.4728400363E-03       4    7    1         0.2625184902E-01      0.5850210348E-01
          0                 4           1             4    7     1      -0.1881474996E-04       4    7    1        -0.1073702289E-02      0.2392706358E-02

    ------------------------------------------------
       NWT REQUIRED            4 OUTER ITERATIONS 
       AND A TOTAL OF          7 INNER ITERATIONS.
    ------------------------------------------------

 NO OUTPUT CONTROL FOR STRESS PERIOD   22   TIME STEP   29
 
 SOLVING FOR HEAD 
                                                   Max.-Head-Change                         Max.-Flux-Residual
  Residual-Control   Outer-Iter.   Inner-Iter.     Column Row Layer    Maximum-Head-Change  Column Row Layer    Maximum-Flux-Residual          L2-NORM 
          0                 1           2             4    7     1       0.7057888316E-01       4    7    1         0.3708867751E+01      0.8192623166E+01
          0                 2           2             4    7     1      -0.5997328820E-01       4    7    1        -0.3220856447E+01      0.7761274249E+01
          0                 3           2             4    7     1       0.4083934663E-02       4    7    1         0.2254585091E+00      0.5441693449E+00
          0                 4           2             4    7     1      -0.1625036940E-03       4    7    1        -0.9221273001E-02      0.2232432536E-01
          0                 5           1             4    7     1       0.2003740650E-05       4    7    1         0.1168619328E-03      0.2954748683E-03

    ------------------------------------------------
       NWT REQUIRED            5 OUTER ITERATIONS 
       AND A TOTAL OF          9 INNER ITERATIONS.
    ------------------------------------------------

 NO OUTPUT CONTROL FOR STRESS PERIOD   22   TIME STEP   30



 STREAM LISTING     PERIOD     22   STEP       30

 LAYER ROW COL. STREAM  RCH.  FLOW INTO     FLOW TO   FLOW OUT OF   OVRLND.     DIRECT     STREAM       STREAM     STREAM     STREAM   STREAMBED  STREAMBED
                SEG.NO.  NO.  STRM. RCH.    AQUIFER    STRM. RCH.    RUNOFF     PRECIP       ET          HEAD       DEPTH      WIDTH   CONDCTNC.   GRADIENT

   1    1    1     1     1    9.1618E+00  1.4063E-01   9.0211E+00  0.000E+00  0.000E+00  0.000E+00  1.09392E+03  8.721E-01  8.071E+00  3.632E-02  1.291E+00
   1    2    2     1     2    9.0211E+00  2.1609E-01   8.8050E+00  0.000E+00  0.000E+00  0.000E+00  1.08893E+03  8.664E-01  7.984E+00  5.589E-02  1.289E+00
   1    3    3     1     3    8.8050E+00  1.8264E-01   8.6224E+00  0.000E+00  0.000E+00  0.000E+00  1.08328E+03  8.600E-01  7.886E+00  4.732E-02  1.287E+00
   1    3    4     1     4    8.6224E+00  1.6685E-01   8.4556E+00  0.000E+00  0.000E+00  0.000E+00  1.07826E+03  8.543E-01  7.800E+00  4.329E-02  1.285E+00
   1    4    5     2     1    6.4556E+00  2.7527E-01   6.1803E+00  0.000E+00  0.000E+00  0.000E+00  1.07246E+03  5.290E-01  1.200E+01  7.800E-02  1.176E+00
   1    5    6     2     2    6.1803E+00  2.1100E-01   5.9693E+00  0.000E+00  0.000E+00  0.000E+00  1.06703E+03  5.167E-01  1.200E+01  6.000E-02  1.172E+00
   1    6    6     2     3    5.9693E+00  2.1035E-01   5.7589E+00  0.000E+00  0.000E+00  0.000E+00  1.06230E+03  5.059E-01  1.200E+01  6.000E-02  1.169E+00
   1    7    6     2     4    5.7589E+00  2.0970E-01   5.5492E+00  0.000E+00  0.000E+00  0.000E+00  1.05757E+03  4.950E-01  1.200E+01  6.000E-02  1.165E+00
   1    8    6     2     5    5.5492E+00  2.0903E-01   5.3402E+00  0.000E+00  0.000E+00  0.000E+00  1.05284E+03  4.839E-01  1.200E+01  6.000E-02  1.161E+00
   1    3    5     3     1    2.0000E+00  2.8252E-01   1.7175E+00  0.000E+00  0.000E+00  0.000E+00  1.07555E+03  1.909E+00  9.636E+00  7.227E-02  1.955E+00
   1    3    6     3     2    1.7175E+00  2.4905E-01   1.4684E+00  0.000E+00  0.000E+00  0.000E+00  1.07264E+03  1.727E+00  8.909E+00  6.682E-02  1.864E+00
   1    3    7     3     3    1.4684E+00  1.9718E-01   1.2712E+00  0.000E+00  0.000E+00  0.000E+00  1.06987E+03  1.555E+00  8.218E+00  5.547E-02  1.777E+00
   1    4    8     3     4    1.2712E+00  2.2567E-01   1.0456E+00  0.000E+00  0.000E+00  0.000E+00  1.06682E+03  1.364E+00  7.455E+00  6.709E-02  1.682E+00
   1    5    8     3     5    1.0456E+00  1.5790E-01   8.8768E-01  0.000E+00  0.000E+00  0.000E+00  1.06362E+03  1.164E+00  6.655E+00  4.991E-02  1.582E+00
   1    6    8     3     6    8.8768E-01  5.5980E-02   8.3170E-01  0.000E+00  0.000E+00  0.000E+00  1.06158E+03  1.036E+00  6.145E+00  1.844E-02  1.518E+00
   1    5   10     4     1    1.0000E+01  9.0919E-02   9.9091E+00  0.000E+00  0.000E+00  0.000E+00  1.07836E+03  6.368E-01  1.000E+01  2.500E-02  1.212E+00
   1    5    9     4     2    9.9091E+00  1.8158E-01   9.7275E+00  0.000E+00  0.000E+00  0.000E+00  1.07154E+03  6.315E-01  1.000E+01  5.000E-02  1.211E+00
   1    6    8     4     3    9.7275E+00  1.2689E-01   9.6006E+00  0.000E+00  0.000E+00  0.000E+00  1.06381E+03  6.256E-01  1.000E+01  3.500E-02  1.209E+00
   1    6    8     5     1    1.0432E+01  2.2686E-01   1.0205E+01  0.000E+00  0.000E+00  0.000E+00  1.05868E+03  6.790E-01  1.542E+01  6.166E-02  1.226E+00
   1    7    7     5     2    1.0205E+01  2.7894E-01   9.9265E+00  0.000E+00  0.000E+00  0.000E+00  1.05417E+03  6.732E-01  1.519E+01  7.594E-02  1.224E+00
   1    8    7     5     3    9.9265E+00  1.9221E-01   9.7343E+00  0.000E+00  0.000E+00  0.000E+00  1.04992E+03  6.676E-01  1.497E+01  5.241E-02  1.223E+00
   1    8    6     5     4    9.7343E+00  1.3577E-01   9.5985E+00  0.000E+00  0.000E+00  0.000E+00  1.04691E+03  6.637E-01  1.482E+01  3.706E-02  1.221E+00
   1    9    6     6     1    9.5985E+00  2.2097E-01   9.3776E+00  0.000E+00  0.000E+00  0.000E+00  1.04341E+03  6.828E-01  1.200E+01  6.000E-02  1.228E+00
   1   10    7     6     2    9.3776E+00  2.2039E-01   9.1572E+00  0.000E+00  0.000E+00  0.000E+00  1.03885E+03  6.732E-01  1.200E+01  6.000E-02  1.224E+00
   1   11    7     6     3    9.1572E+00  2.1981E-01   8.9374E+00  0.000E+00  0.000E+00  0.000E+00  1.03430E+03  6.636E-01  1.200E+01  6.000E-02  1.221E+00
   1   12    7     6     4    8.9374E+00  2.1923E-01   8.7181E+00  0.000E+00  0.000E+00  0.000E+00  1.02974E+03  6.539E-01  1.200E+01  6.000E-02  1.218E+00
   1   13    7     6     5    8.7181E+00 -3.4857E-02   8.7530E+00  0.000E+00  0.000E+00  0.000E+00  1.02656E+03  6.497E-01  1.200E+01  2.400E-01 -4.841E-02
   1   14    9     7     1    1.5000E+02  1.3750E+00   1.4862E+02  0.000E+00  0.000E+00  0.000E+00  1.03987E+03  2.288E+00  5.529E+01  5.593E-01  8.195E-01
   1   13    8     7     2    1.4862E+02  1.9532E+00   1.4667E+02  0.000E+00  0.000E+00  0.000E+00  1.03478E+03  2.279E+00  5.525E+01  6.147E-01  1.059E+00
   1   13    7     7     3    1.4667E+02  1.6664E+00   1.4501E+02  0.000E+00  0.000E+00  0.000E+00  1.02969E+03  2.269E+00  5.521E+01  5.584E-01  9.948E-01
   1   13    6     8     1    1.5376E+02  1.0224E+00   1.5274E+02  0.000E+00  0.000E+00  0.000E+00  1.02471E+03  2.840E+00  4.117E+01  4.196E-01  8.122E-01
   1   13    5     8     2    1.5274E+02  2.8445E-01   1.5245E+02  0.000E+00  0.000E+00  0.000E+00  1.01846E+03  2.835E+00  4.111E+01  4.189E-01  2.263E-01
   1   13    4     8     3    1.5245E+02 -2.0743E+00   1.5453E+02  0.000E+00  0.000E+00  0.000E+00  1.01222E+03  2.841E+00  4.120E+01  4.198E+00 -1.647E-01
   1   13    3     8     4    1.5453E+02 -3.4860E+00   1.5801E+02  0.000E+00  0.000E+00  0.000E+00  1.00599E+03  2.860E+00  4.148E+01  4.227E+00 -2.749E-01
   1   13    2     8     5    1.5801E+02 -2.5776E+00   1.6059E+02  0.000E+00  0.000E+00  0.000E+00  9.99756E+02  2.881E+00  4.178E+01  4.257E+00 -2.018E-01
   1   13    1     8     6    1.6059E+02 -1.9912E+00   1.6258E+02  0.000E+00  0.000E+00  0.000E+00  9.94772E+02  2.897E+00  4.200E+01  2.568E+00 -2.585E-01
   1    8    6     9     1    5.3402E+00  0.0000E+00   5.3402E+00  0.000E+00  0.000E+00  0.000E+00  1.08031E+03  1.555E+00  4.000E+00  0.000E+00  1.518E+00
   1    8    5     9     2    5.3402E+00  0.0000E+00   5.3402E+00  0.000E+00  0.000E+00  0.000E+00  1.07981E+03  1.555E+00  4.000E+00  0.000E+00  1.518E+00





UNSATURATED ZONE PACKAGE VOLUMETRIC BUDGET FOR  TIME STEP    30 STRESS PERIOD   22
  ------------------------------------------------------------------------------



     CUMULATIVE VOLUMES      L**3       RATES FOR THIS TIME STEP      L**3/T
     ------------------                 ------------------------

           IN:                                      IN:
           ---                                      ---
        INFILTRATION =  1030000226.6587          INFILTRATION =          23.2876

          OUT:                                     OUT:
          ----                                     ----
              UZF ET =   854773293.9938                UZF ET =          12.0675
        UZF RECHARGE =       73224.0000          UZF RECHARGE =       0.0000E+00

            IN - OUT =   175153708.6649              IN - OUT =          11.2201

          STORAGE:                                 STORAGE:
          --------                                 --------
      STORAGE CHANGE =   175154185.8392        STORAGE CHANGE =          11.2201

 PERCENT DISCREPANCY IS DIFFERENCE BETWEEN IN-OUT MINUS CHANGE IN STORAGE
 DIVIDED BY THE AVERAGE OF IN AND OUT TIMES 100

 PERCENT DISCREPANCY =          -0.00     PERCENT DISCREPANCY =           0.00






1
  VOLUMETRIC BUDGET FOR AGRICULTURAL FIELDS AT  END OF TIME STEP   30, STRESS PERIOD  22
  ------------------------------------------------------------------------------

     CUMULATIVE VOLUMES      L**3       RATES FOR THIS TIME STEP      L**3/T
     ------------------                 ------------------------

           IN:                                      IN:
           ---                                      ---
               AG WELLS  =   665535360.0000                 AG WELLS  =          17.0998
      DIVERSION SEGMENTS =   317583232.0000        DIVERSION SEGMENTS =           5.3402
           GW IRRIGATION =           0.0000             GW IRRIGATION =           0.0000
           SW IRRIGATION =           0.0000             SW IRRIGATION =           0.0000
        SYSTEM LOSSES GW =           0.0000          SYSTEM LOSSES GW =           0.0000
        SYSTEM LOSSES SW =           0.0000          SYSTEM LOSSES SW =           0.0000

                TOTAL IN =   983118592.0000                  TOTAL IN =          22.4400

          OUT:                                     OUT:
          ----                                     ----
               AG WELLS  =           0.0000                 AG WELLS  =           0.0000
      DIVERSION SEGMENTS =           0.0000        DIVERSION SEGMENTS =           0.0000
           GW IRRIGATION =   665535360.0000             GW IRRIGATION =          17.0998
           SW IRRIGATION =   317589344.0000             SW IRRIGATION =           5.3403
        SYSTEM LOSSES GW =           0.0000          SYSTEM LOSSES GW =           0.0000
        SYSTEM LOSSES SW =           0.0000          SYSTEM LOSSES SW =           0.0000

               TOTAL OUT =   983124736.0000                 TOTAL OUT =          22.4401

                IN - OUT =       -6144.0000                  IN - OUT =      -1.0681E-04

     PERCENT DISCREPANCY =          -0.00         PERCENT DISCREPANCY =          -0.00



1
  VOLUMETRIC BUDGET FOR ENTIRE MODEL AT END OF TIME STEP   30, STRESS PERIOD  22
  ------------------------------------------------------------------------------

     CUMULATIVE VOLUMES      L**3       RATES FOR THIS TIME STEP      L**3/T
     ------------------                 ------------------------

           IN:                                      IN:
           ---                                      ---
             STORAGE     =   886706880.0000               STORAGE     =          17.8112
       CONSTANT HEAD     =           0.0000         CONSTANT HEAD     =           0.0000
     HEAD DEP BOUNDS     =    15933970.0000       HEAD DEP BOUNDS     =           0.2884
      STREAM LEAKAGE     =   652074496.0000        STREAM LEAKAGE     =          11.4049
        UZF RECHARGE     =       73223.9531          UZF RECHARGE     =           0.0000
               GW ET     =           0.0000                 GW ET     =           0.0000
     SURFACE LEAKAGE     =           0.0000       SURFACE LEAKAGE     =           0.0000
           AG WELLS      =           0.0000             AG WELLS      =           0.0000

                TOTAL IN =  1554788608.0000                  TOTAL IN =          29.5045

          OUT:                                     OUT:
          ----                                     ----
             STORAGE     =   309054592.0000               STORAGE     =           1.9540
       CONSTANT HEAD     =           0.0000         CONSTANT HEAD     =           0.0000
     HEAD DEP BOUNDS     =    15938258.0000       HEAD DEP BOUNDS     =           0.2868
      STREAM LEAKAGE     =   564268224.0000        STREAM LEAKAGE     =          10.1639
        UZF RECHARGE     =           0.0000          UZF RECHARGE     =           0.0000
               GW ET     =           0.0000                 GW ET     =           0.0000
     SURFACE LEAKAGE     =           0.0000       SURFACE LEAKAGE     =           0.0000
           AG WELLS      =   665535360.0000             AG WELLS      =          17.0998

               TOTAL OUT =  1554796416.0000                 TOTAL OUT =          29.5045

                IN - OUT =       -7808.0000                  IN - OUT =       1.5259E-05

     PERCENT DISCREPANCY =          -0.00         PERCENT DISCREPANCY =           0.00






         TIME SUMMARY AT END OF TIME STEP   30 IN STRESS PERIOD   22
                    SECONDS     MINUTES      HOURS       DAYS        YEARS
                    -----------------------------------------------------------
   TIME STEP LENGTH  87667.      1461.1      24.352      1.0147     2.77799E-03
 STRESS PERIOD TIME 2.63000E+06  43833.      730.56      30.440     8.33397E-02
         TOTAL TIME 5.53166E+07 9.21944E+05  15366.      640.24      1.7529    
1
1
                            STRESS PERIOD NO.   23, LENGTH =   2630000.    
                            -----------------------------------------------

                              NUMBER OF TIME STEPS =    30

                               MULTIPLIER FOR DELT =     1.000

                            INITIAL TIME STEP SIZE =   87666.66    

 REUSING NON-PARAMETER GHB CELLS FROM LAST STRESS PERIOD

      2 GHB CELLS

 REUSING STREAM SEGMENT DATA FROM LAST STRESS PERIOD



            AREAL INFILTRATION RATE
 READING ON UNIT   19 WITH FORMAT: (FREE)              

            1           2           3           4           5           6           7           8           9          10
 ........................................................................................................................
   1   1.0000E-10  2.0000E-10   0.000       0.000       0.000       0.000       0.000       0.000       0.000       0.000    
   2   2.0000E-10  1.0000E-10  2.0000E-10   0.000       0.000      8.0000E-10  8.0000E-10  5.0000E-10   0.000       0.000    
   3    0.000      5.0000E-10  1.0000E-10  1.0000E-10  8.0000E-10  8.0000E-10  5.0000E-10  5.0000E-10   0.000       0.000    
   4   8.0000E-10  5.0000E-10  1.0000E-10  1.0000E-10  1.0000E-10  1.0000E-10  1.0000E-10  1.0000E-10  2.0000E-10   0.000    
   5   8.0000E-10  5.0000E-10  1.0000E-10  1.0000E-10  1.0000E-10  1.0000E-10  1.0000E-10  1.0000E-10  1.0000E-10  1.0000E-10
   6   8.0000E-10  5.0000E-10  5.0000E-10  2.0000E-10  2.0000E-10  1.0000E-10  1.0000E-10  1.0000E-10  1.0000E-10  5.0000E-10
   7   8.0000E-10  5.0000E-10  5.0000E-10  2.0000E-10  2.0000E-10  1.0000E-10  1.0000E-10  2.0000E-10  2.0000E-10   0.000    
   8    0.000      5.0000E-10  5.0000E-10  2.0000E-10  2.0000E-10  1.0000E-10  1.0000E-10  2.0000E-10  5.0000E-10   0.000    
   9    0.000      5.0000E-10  5.0000E-10  2.0000E-10  2.0000E-10  1.0000E-10  1.0000E-10  2.0000E-10  5.0000E-10   0.000    
  10    0.000      5.0000E-10  5.0000E-10  2.0000E-10  2.0000E-10  1.0000E-10  1.0000E-10  2.0000E-10  5.0000E-10  8.0000E-10
  11    0.000      1.0000E-10  1.0000E-10  1.0000E-10  1.0000E-10  1.0000E-10  1.0000E-10  2.0000E-10  5.0000E-10   0.000    
  12   1.0000E-10  1.0000E-10  1.0000E-10  1.0000E-10  1.0000E-10  1.0000E-10  1.0000E-10  1.0000E-10  2.0000E-10   0.000    
  13   1.0000E-10  1.0000E-10  2.0000E-10  2.0000E-10  2.0000E-10  2.0000E-10  2.0000E-10  1.0000E-10  1.0000E-10   0.000    
  14    0.000      2.0000E-10  5.0000E-10  5.0000E-10  5.0000E-10  5.0000E-10  5.0000E-10  2.0000E-10  1.0000E-10   0.000    
  15    0.000       0.000      8.0000E-10  8.0000E-10  8.0000E-10  8.0000E-10   0.000       0.000       0.000       0.000    

                  ET RATE =  5.000000E-09

 USING ET EXTINCTION DEPTH FROM PREVIOUS STRESS PERIOD. CURRENT PERIOD IS:      23

 USING EXTINCTION WATER CONTENT FROM PREVIOUS STRESS PERIOD. CURRENT PERIOD IS:      23

 USING AIR ENTRY PRESSURE FROM PREVIOUS STRESS PERIOD. CURRENT PERIOD IS:      23

 USING ROOT PRESSURE HEAD FROM PREVIOUS STRESS PERIOD. CURRENT PERIOD IS:      23

 USING ROOT ACTIVITY FROM PREVIOUS STRESS PERIOD. CURRENT PERIOD IS:      23

 PROCESSING AG STRESS PERIOD DATA

 READING AG STRESS PERIOD DATA

 READING IRRIGATION SEGMENT

 READING IRRIGATION WELL

 READING SUPPLEMENTAL WELL

 END PROCESSING AG STRESS PERIOD DATA OPTIONS
 
 SOLVING FOR HEAD 
                                                   Max.-Head-Change                         Max.-Flux-Residual
  Residual-Control   Outer-Iter.   Inner-Iter.     Column Row Layer    Maximum-Head-Change  Column Row Layer    Maximum-Flux-Residual          L2-NORM 
          0                 1           2             4    7     1       0.7004618110E-01       4    7    1         0.3680342794E+01      0.8164149621E+01
          0                 2           2             4    7     1      -0.6813641751E-02       4    7    1        -0.3680382656E+00      0.8164566140E+00
          0                 3           2             4    7     1       0.4639831724E-03       4    7    1         0.2576265200E-01      0.5715186575E-01
          0                 4           1             4    7     1      -0.1846232688E-04       4    7    1        -0.1053694102E-02      0.2337509659E-02

    ------------------------------------------------
       NWT REQUIRED            4 OUTER ITERATIONS 
       AND A TOTAL OF          7 INNER ITERATIONS.
    ------------------------------------------------

 NO OUTPUT CONTROL FOR STRESS PERIOD   23   TIME STEP    1
 
 SOLVING FOR HEAD 
                                                   Max.-Head-Change                         Max.-Flux-Residual
  Residual-Control   Outer-Iter.   Inner-Iter.     Column Row Layer    Maximum-Head-Change  Column Row Layer    Maximum-Flux-Residual          L2-NORM 
          0                 1           2             4    7     1       0.6925094913E-01       4    7    1         0.3639403794E+01      0.8006889533E+01
          0                 2           2             4    7     1      -0.6736288521E-02       4    7    1        -0.3639444415E+00      0.8006883174E+00
          0                 3           2             4    7     1       0.4587156929E-03       4    7    1         0.2547608347E-01      0.5604810198E-01
          0                 4           1             4    7     1      -0.1825272914E-04       4    7    1        -0.1041973440E-02      0.2292363317E-02

    ------------------------------------------------
       NWT REQUIRED            4 OUTER ITERATIONS 
       AND A TOTAL OF          7 INNER ITERATIONS.
    ------------------------------------------------

 NO OUTPUT CONTROL FOR STRESS PERIOD   23   TIME STEP    2
 
 SOLVING FOR HEAD 
                                                   Max.-Head-Change                         Max.-Flux-Residual
  Residual-Control   Outer-Iter.   Inner-Iter.     Column Row Layer    Maximum-Head-Change  Column Row Layer    Maximum-Flux-Residual          L2-NORM 
          0                 1           2             4    7     1       0.6844972288E-01       4    7    1         0.3598078487E+01      0.7855304638E+01
          0                 2           2             4    7     1      -0.6658351959E-02       4    7    1        -0.3598119698E+00      0.7855302279E+00
          0                 3           2             4    7     1       0.4534084932E-03       4    7    1         0.2518680977E-01      0.5498704757E-01
          0                 4           1             4    7     1      -0.1804155081E-04       4    7    1        -0.1030142146E-02      0.2248961720E-02

    ------------------------------------------------
       NWT REQUIRED            4 OUTER ITERATIONS 
       AND A TOTAL OF          7 INNER ITERATIONS.
    ------------------------------------------------

 NO OUTPUT CONTROL FOR STRESS PERIOD   23   TIME STEP    3
 
 SOLVING FOR HEAD 
                                                   Max.-Head-Change                         Max.-Flux-Residual
  Residual-Control   Outer-Iter.   Inner-Iter.     Column Row Layer    Maximum-Head-Change  Column Row Layer    Maximum-Flux-Residual          L2-NORM 
          0                 1           2             4    7     1       0.6764399519E-01       4    7    1         0.3556449598E+01      0.7709063010E+01
          0                 2           2             4    7     1      -0.6579977299E-02       4    7    1        -0.3556491246E+00      0.7709064759E+00
          0                 3           2             4    7     1       0.4480714629E-03       4    7    1         0.2489541007E-01      0.5396340391E-01
          0                 4           1             4    7     1      -0.1782918517E-04       4    7    1        -0.1018223867E-02      0.2207101244E-02

    ------------------------------------------------
       NWT REQUIRED            4 OUTER ITERATIONS 
       AND A TOTAL OF          7 INNER ITERATIONS.
    ------------------------------------------------

 NO OUTPUT CONTROL FOR STRESS PERIOD   23   TIME STEP    4
 
 SOLVING FOR HEAD 
                                                   Max.-Head-Change                         Max.-Flux-Residual
  Residual-Control   Outer-Iter.   Inner-Iter.     Column Row Layer    Maximum-Head-Change  Column Row Layer    Maximum-Flux-Residual          L2-NORM 
          0                 1           2             4    7     1       0.6683516172E-01       4    7    1         0.3514594532E+01      0.7567863636E+01
          0                 2           2             4    7     1      -0.6501300325E-02       4    7    1        -0.3514636478E+00      0.7567868588E+00
          0                 3           2             4    7     1       0.4427138482E-03       4    7    1         0.2460242629E-01      0.5297504565E-01
          0                 4           1             4    7     1      -0.1761600098E-04       4    7    1        -0.1006240822E-02      0.2166679896E-02

    ------------------------------------------------
       NWT REQUIRED            4 OUTER ITERATIONS 
       AND A TOTAL OF          7 INNER ITERATIONS.
    ------------------------------------------------

 NO OUTPUT CONTROL FOR STRESS PERIOD   23   TIME STEP    5
 
 SOLVING FOR HEAD 
                                                   Max.-Head-Change                         Max.-Flux-Residual
  Residual-Control   Outer-Iter.   Inner-Iter.     Column Row Layer    Maximum-Head-Change  Column Row Layer    Maximum-Flux-Residual          L2-NORM 
          0                 1           2             4    7     1       0.6602412436E-01       4    7    1         0.3472563914E+01      0.7431418988E+01
          0                 2           2             4    7     1      -0.6422408785E-02       4    7    1        -0.3472606034E+00      0.7431426640E+00
          0                 3           2             4    7     1       0.4373416241E-03       4    7    1         0.2430821289E-01      0.5201995657E-01
          0                 4           1             4    7     1      -0.1740223527E-04       4    7    1        -0.9942074823E-03      0.2127613432E-02

    ------------------------------------------------
       NWT REQUIRED            4 OUTER ITERATIONS 
       AND A TOTAL OF          7 INNER ITERATIONS.
    ------------------------------------------------

 NO OUTPUT CONTROL FOR STRESS PERIOD   23   TIME STEP    6
 
 SOLVING FOR HEAD 
                                                   Max.-Head-Change                         Max.-Flux-Residual
  Residual-Control   Outer-Iter.   Inner-Iter.     Column Row Layer    Maximum-Head-Change  Column Row Layer    Maximum-Flux-Residual          L2-NORM 
          0                 1           2             4    7     1       0.6521225150E-01       4    7    1         0.3430433491E+01      0.7299476334E+01
          0                 2           2             4    7     1      -0.6343435806E-02       4    7    1        -0.3430475673E+00      0.7299486342E+00
          0                 3           2             4    7     1       0.4319638559E-03       4    7    1         0.2401330017E-01      0.5109637762E-01
          0                 4           1             4    7     1      -0.1718824910E-04       4    7    1        -0.9821455426E-03      0.2089841074E-02

    ------------------------------------------------
       NWT REQUIRED            4 OUTER ITERATIONS 
       AND A TOTAL OF          7 INNER ITERATIONS.
    ------------------------------------------------

 NO OUTPUT CONTROL FOR STRESS PERIOD   23   TIME STEP    7
 
 SOLVING FOR HEAD 
                                                   Max.-Head-Change                         Max.-Flux-Residual
  Residual-Control   Outer-Iter.   Inner-Iter.     Column Row Layer    Maximum-Head-Change  Column Row Layer    Maximum-Flux-Residual          L2-NORM 
          0                 1           2             4    7     1       0.6440027957E-01       4    7    1         0.3388245224E+01      0.7171783832E+01
          0                 2           2             4    7     1      -0.6264453041E-02       4    7    1        -0.3388287368E+00      0.7171795758E+00
          0                 3           2             4    7     1       0.4265854226E-03       4    7    1         0.2371798194E-01      0.5020255181E-01
          0                 4           1             4    7     1      -0.1697423564E-04       4    7    1        -0.9700669955E-03      0.2053288958E-02

    ------------------------------------------------
       NWT REQUIRED            4 OUTER ITERATIONS 
       AND A TOTAL OF          7 INNER ITERATIONS.
    ------------------------------------------------

 NO OUTPUT CONTROL FOR STRESS PERIOD   23   TIME STEP    8
 
 SOLVING FOR HEAD 
                                                   Max.-Head-Change                         Max.-Flux-Residual
  Residual-Control   Outer-Iter.   Inner-Iter.     Column Row Layer    Maximum-Head-Change  Column Row Layer    Maximum-Flux-Residual          L2-NORM 
          0                 1           2             4    7     1       0.6358929046E-01       4    7    1         0.3346059038E+01      0.7048134148E+01
          0                 2           2             4    7     1      -0.6185565743E-02       4    7    1        -0.3346101054E+00      0.7048147755E+00
          0                 3           2             4    7     1       0.4212134918E-03       4    7    1         0.2342267774E-01      0.4933701679E-01
          0                 4           1             4    7     1      -0.1676048168E-04       4    7    1        -0.9579890423E-03      0.2017879960E-02

    ------------------------------------------------
       NWT REQUIRED            4 OUTER ITERATIONS 
       AND A TOTAL OF          7 INNER ITERATIONS.
    ------------------------------------------------

 NO OUTPUT CONTROL FOR STRESS PERIOD   23   TIME STEP    9
 
 SOLVING FOR HEAD 
                                                   Max.-Head-Change                         Max.-Flux-Residual
  Residual-Control   Outer-Iter.   Inner-Iter.     Column Row Layer    Maximum-Head-Change  Column Row Layer    Maximum-Flux-Residual          L2-NORM 
          0                 1           2             4    7     1       0.6278028073E-01       4    7    1         0.3303931033E+01      0.6928310935E+01
          0                 2           2             4    7     1      -0.6106870863E-02       4    7    1        -0.3303972840E+00      0.6928325931E+00
          0                 3           2             4    7     1       0.4158546649E-03       4    7    1         0.2312778031E-01      0.4849827355E-01
          0                 4           1             4    7     1      -0.1654724867E-04       4    7    1        -0.9459277051E-03      0.1983582149E-02

    ------------------------------------------------
       NWT REQUIRED            4 OUTER ITERATIONS 
       AND A TOTAL OF          7 INNER ITERATIONS.
    ------------------------------------------------

 NO OUTPUT CONTROL FOR STRESS PERIOD   23   TIME STEP   10
 
 SOLVING FOR HEAD 
                                                   Max.-Head-Change                         Max.-Flux-Residual
  Residual-Control   Outer-Iter.   Inner-Iter.     Column Row Layer    Maximum-Head-Change  Column Row Layer    Maximum-Flux-Residual          L2-NORM 
          0                 1           2             4    7     1       0.6197377672E-01       4    7    1         0.3261891125E+01      0.6812123445E+01
          0                 2           2             4    7     1      -0.6028419616E-02       4    7    1        -0.3261932652E+00      0.6812139590E+00
          0                 3           2             4    7     1       0.4105124304E-03       4    7    1         0.2283349914E-01      0.4768497177E-01
          0                 4           1             4    7     1      -0.1633467684E-04       4    7    1        -0.9338916129E-03      0.1950314564E-02

    ------------------------------------------------
       NWT REQUIRED            4 OUTER ITERATIONS 
       AND A TOTAL OF          7 INNER ITERATIONS.
    ------------------------------------------------

 NO OUTPUT CONTROL FOR STRESS PERIOD   23   TIME STEP   11
 
 SOLVING FOR HEAD 
                                                   Max.-Head-Change                         Max.-Flux-Residual
  Residual-Control   Outer-Iter.   Inner-Iter.     Column Row Layer    Maximum-Head-Change  Column Row Layer    Maximum-Flux-Residual          L2-NORM 
          0                 1           2             4    7     1       0.6117065242E-01       4    7    1         0.3219988358E+01      0.6699393085E+01
          0                 2           2             4    7     1      -0.5950297027E-02       4    7    1        -0.3220029541E+00      0.6699410069E+00
          0                 3           2             4    7     1       0.4051925761E-03       4    7    1         0.2254017756E-01      0.4689586458E-01
          0                 4           1             4    7     1      -0.1612299448E-04       4    7    1        -0.9218947341E-03      0.1918046677E-02

    ------------------------------------------------
       NWT REQUIRED            4 OUTER ITERATIONS 
       AND A TOTAL OF          7 INNER ITERATIONS.
    ------------------------------------------------

 NO OUTPUT CONTROL FOR STRESS PERIOD   23   TIME STEP   12
 
 SOLVING FOR HEAD 
                                                   Max.-Head-Change                         Max.-Flux-Residual
  Residual-Control   Outer-Iter.   Inner-Iter.     Column Row Layer    Maximum-Head-Change  Column Row Layer    Maximum-Flux-Residual          L2-NORM 
          0                 1           2             4    7     1       0.6037158297E-01       4    7    1         0.3178260797E+01      0.6589964959E+01
          0                 2           2             4    7     1      -0.5872568782E-02       4    7    1        -0.3178301581E+00      0.6589982638E+00
          0                 3           2             4    7     1       0.3998995764E-03       4    7    1         0.2224808209E-01      0.4612987844E-01
          0                 4           1             4    7     1      -0.1591238109E-04       4    7    1        -0.9099480039E-03      0.1886713055E-02

    ------------------------------------------------
       NWT REQUIRED            4 OUTER ITERATIONS 
       AND A TOTAL OF          7 INNER ITERATIONS.
    ------------------------------------------------

 NO OUTPUT CONTROL FOR STRESS PERIOD   23   TIME STEP   13
 
 SOLVING FOR HEAD 
                                                   Max.-Head-Change                         Max.-Flux-Residual
  Residual-Control   Outer-Iter.   Inner-Iter.     Column Row Layer    Maximum-Head-Change  Column Row Layer    Maximum-Flux-Residual          L2-NORM 
          0                 1           2             4    7     1       0.5957718205E-01       4    7    1         0.3136743446E+01      0.6483668624E+01
          0                 2           2             4    7     1      -0.5795294584E-02       4    7    1        -0.3136783782E+00      0.6483686833E+00
          0                 3           2             4    7     1       0.3946374964E-03       4    7    1         0.2195745779E-01      0.4538580473E-01
          0                 4           1             4    7     1      -0.1570299806E-04       4    7    1        -0.8980614589E-03      0.1856281634E-02

    ------------------------------------------------
       NWT REQUIRED            4 OUTER ITERATIONS 
       AND A TOTAL OF          7 INNER ITERATIONS.
    ------------------------------------------------

 NO OUTPUT CONTROL FOR STRESS PERIOD   23   TIME STEP   14
 
 SOLVING FOR HEAD 
                                                   Max.-Head-Change                         Max.-Flux-Residual
  Residual-Control   Outer-Iter.   Inner-Iter.     Column Row Layer    Maximum-Head-Change  Column Row Layer    Maximum-Flux-Residual          L2-NORM 
          0                 1           2             4    7     1       0.5878801557E-01       4    7    1         0.3095468125E+01      0.6380374359E+01
          0                 2           2             4    7     1      -0.5718529491E-02       4    7    1        -0.3095507970E+00      0.6380393019E+00
          0                 3           2             4    7     1       0.3894100852E-03       4    7    1         0.2166852746E-01      0.4466275163E-01
          0                 4           1             4    7     1      -0.1549499449E-04       4    7    1        -0.8862441814E-03      0.1826709423E-02

    ------------------------------------------------
       NWT REQUIRED            4 OUTER ITERATIONS 
       AND A TOTAL OF          7 INNER ITERATIONS.
    ------------------------------------------------

 NO OUTPUT CONTROL FOR STRESS PERIOD   23   TIME STEP   15
 
 SOLVING FOR HEAD 
                                                   Max.-Head-Change                         Max.-Flux-Residual
  Residual-Control   Outer-Iter.   Inner-Iter.     Column Row Layer    Maximum-Head-Change  Column Row Layer    Maximum-Flux-Residual          L2-NORM 
          0                 1           2             4    7     1       0.5800472722E-01       4    7    1         0.3054471433E+01      0.6279944029E+01
          0                 2           2             4    7     1      -0.5642336124E-02       4    7    1        -0.3054510751E+00      0.6279962925E+00
          0                 3           2             4    7     1       0.3842216066E-03       4    7    1         0.2138154728E-01      0.4395973872E-01
          0                 4           1             4    7     1      -0.1528853973E-04       4    7    1        -0.8745066759E-03      0.1797955890E-02

    ------------------------------------------------
       NWT REQUIRED            4 OUTER ITERATIONS 
       AND A TOTAL OF          7 INNER ITERATIONS.
    ------------------------------------------------

 NO OUTPUT CONTROL FOR STRESS PERIOD   23   TIME STEP   16
 
 SOLVING FOR HEAD 
                                                   Max.-Head-Change                         Max.-Flux-Residual
  Residual-Control   Outer-Iter.   Inner-Iter.     Column Row Layer    Maximum-Head-Change  Column Row Layer    Maximum-Flux-Residual          L2-NORM 
          0                 1           2             4    7     1       0.5722763967E-01       4    7    1         0.3013772232E+01      0.6182246014E+01
          0                 2           2             4    7     1      -0.5566745879E-02       4    7    1        -0.3013810990E+00      0.6182265088E+00
          0                 3           2             4    7     1       0.3790741992E-03       4    7    1         0.2109664937E-01      0.4327585667E-01
          0                 4           1             4    7     1      -0.1508371956E-04       4    7    1        -0.8628543260E-03      0.1769986044E-02

    ------------------------------------------------
       NWT REQUIRED            4 OUTER ITERATIONS 
       AND A TOTAL OF          7 INNER ITERATIONS.
    ------------------------------------------------

 NO OUTPUT CONTROL FOR STRESS PERIOD   23   TIME STEP   17
 
 SOLVING FOR HEAD 
                                                   Max.-Head-Change                         Max.-Flux-Residual
  Residual-Control   Outer-Iter.   Inner-Iter.     Column Row Layer    Maximum-Head-Change  Column Row Layer    Maximum-Flux-Residual          L2-NORM 
          0                 1           2             4    7     1       0.5645717061E-01       4    7    1         0.2973394508E+01      0.6087164871E+01
          0                 2           2             4    7     1      -0.5499558225E-02       4    7    1        -0.2978862157E+00      0.6087710497E+00
          0                 3           2             4    7     1       0.3744989380E-03       4    7    1         0.2085200527E-01      0.4261398050E-01
          0                 4           1             4    7     1      -0.1490166587E-04       4    7    1        -0.8528483895E-03      0.1742923050E-02

    ------------------------------------------------
       NWT REQUIRED            4 OUTER ITERATIONS 
       AND A TOTAL OF          7 INNER ITERATIONS.
    ------------------------------------------------

 NO OUTPUT CONTROL FOR STRESS PERIOD   23   TIME STEP   18
 
 SOLVING FOR HEAD 
                                                   Max.-Head-Change                         Max.-Flux-Residual
  Residual-Control   Outer-Iter.   Inner-Iter.     Column Row Layer    Maximum-Head-Change  Column Row Layer    Maximum-Flux-Residual          L2-NORM 
          0                 1           2             4    7     1       0.5566798076E-01       4    7    1         0.2932953610E+01      0.5994553273E+01
          0                 2           2             4    7     1      -0.5415115481E-02       4    7    1        -0.2932993552E+00      0.5994890716E+00
          0                 3           2             4    7     1       0.3687487159E-03       4    7    1         0.2053092598E-01      0.4196422578E-01
          0                 4           1             4    7     1      -0.1467285932E-04       4    7    1        -0.8397162289E-03      0.1716338452E-02

    ------------------------------------------------
       NWT REQUIRED            4 OUTER ITERATIONS 
       AND A TOTAL OF          7 INNER ITERATIONS.
    ------------------------------------------------

 NO OUTPUT CONTROL FOR STRESS PERIOD   23   TIME STEP   19
 
 SOLVING FOR HEAD 
                                                   Max.-Head-Change                         Max.-Flux-Residual
  Residual-Control   Outer-Iter.   Inner-Iter.     Column Row Layer    Maximum-Head-Change  Column Row Layer    Maximum-Flux-Residual          L2-NORM 
          0                 1           2             4    7     1       0.5489501485E-01       4    7    1         0.2892357442E+01      0.5904261453E+01
          0                 2           2             4    7     1      -0.5339845689E-02       4    7    1        -0.2892396666E+00      0.5904280839E+00
          0                 3           2             4    7     1       0.3636231318E-03       4    7    1         0.2024674831E-01      0.4132995803E-01
          0                 4           1             4    7     1      -0.1446890743E-04       4    7    1        -0.8280933296E-03      0.1690397276E-02

    ------------------------------------------------
       NWT REQUIRED            4 OUTER ITERATIONS 
       AND A TOTAL OF          7 INNER ITERATIONS.
    ------------------------------------------------

 NO OUTPUT CONTROL FOR STRESS PERIOD   23   TIME STEP   20
 
 SOLVING FOR HEAD 
                                                   Max.-Head-Change                         Max.-Flux-Residual
  Residual-Control   Outer-Iter.   Inner-Iter.     Column Row Layer    Maximum-Head-Change  Column Row Layer    Maximum-Flux-Residual          L2-NORM 
          0                 1           2             4    7     1       0.5413092951E-01       4    7    1         0.2852204878E+01      0.5816266407E+01
          0                 2           2             4    7     1      -0.5265519950E-02       4    7    1        -0.2852243369E+00      0.5816285693E+00
          0                 3           2             4    7     1       0.3585618347E-03       4    7    1         0.1996567579E-01      0.4071399972E-01
          0                 4           1             4    7     1      -0.1426751357E-04       4    7    1        -0.8165974414E-03      0.1665204000E-02

    ------------------------------------------------
       NWT REQUIRED            4 OUTER ITERATIONS 
       AND A TOTAL OF          7 INNER ITERATIONS.
    ------------------------------------------------

 NO OUTPUT CONTROL FOR STRESS PERIOD   23   TIME STEP   21
 
 SOLVING FOR HEAD 
                                                   Max.-Head-Change                         Max.-Flux-Residual
  Residual-Control   Outer-Iter.   Inner-Iter.     Column Row Layer    Maximum-Head-Change  Column Row Layer    Maximum-Flux-Residual          L2-NORM 
          0                 1           2             4    7     1       0.5337571980E-01       4    7    1         0.2812501199E+01      0.5730490233E+01
          0                 2           2             4    7     1      -0.5192057553E-02       4    7    1        -0.2812538947E+00      0.5730509252E+00
          0                 3           2             4    7     1       0.3535593287E-03       4    7    1         0.1968774543E-01      0.4011356151E-01
          0                 4           1             4    7     1      -0.1406845910E-04       4    7    1        -0.8052300736E-03      0.1640648782E-02

    ------------------------------------------------
       NWT REQUIRED            4 OUTER ITERATIONS 
       AND A TOTAL OF          7 INNER ITERATIONS.
    ------------------------------------------------

 NO OUTPUT CONTROL FOR STRESS PERIOD   23   TIME STEP   22
 
 SOLVING FOR HEAD 
                                                   Max.-Head-Change                         Max.-Flux-Residual
  Residual-Control   Outer-Iter.   Inner-Iter.     Column Row Layer    Maximum-Head-Change  Column Row Layer    Maximum-Flux-Residual          L2-NORM 
          0                 1           2             4    7     1       0.5262970645E-01       4    7    1         0.2773264948E+01      0.5646841867E+01
          0                 2           2             4    7     1      -0.5119489699E-02       4    7    1        -0.2773301946E+00      0.5646860635E+00
          0                 3           2             4    7     1       0.3486177376E-03       4    7    1         0.1941308701E-01      0.3952802114E-01
          0                 4           1             4    7     1      -0.1387182841E-04       4    7    1        -0.7939965278E-03      0.1616696932E-02

    ------------------------------------------------
       NWT REQUIRED            4 OUTER ITERATIONS 
       AND A TOTAL OF          7 INNER ITERATIONS.
    ------------------------------------------------

 NO OUTPUT CONTROL FOR STRESS PERIOD   23   TIME STEP   23
 
 SOLVING FOR HEAD 
                                                   Max.-Head-Change                         Max.-Flux-Residual
  Residual-Control   Outer-Iter.   Inner-Iter.     Column Row Layer    Maximum-Head-Change  Column Row Layer    Maximum-Flux-Residual          L2-NORM 
          0                 1           2             4    7     1       0.5189304278E-01       4    7    1         0.2734505496E+01      0.5565244158E+01
          0                 2           2             4    7     1      -0.5047831308E-02       4    7    1        -0.2734541739E+00      0.5565262606E+00
          0                 3           2             4    7     1       0.3437380772E-03       4    7    1         0.1914176614E-01      0.3895683315E-01
          0                 4           1             4    7     1      -0.1367766203E-04       4    7    1        -0.7828994824E-03      0.1593337863E-02

    ------------------------------------------------
       NWT REQUIRED            4 OUTER ITERATIONS 
       AND A TOTAL OF          7 INNER ITERATIONS.
    ------------------------------------------------

 NO OUTPUT CONTROL FOR STRESS PERIOD   23   TIME STEP   24
 
 SOLVING FOR HEAD 
                                                   Max.-Head-Change                         Max.-Flux-Residual
  Residual-Control   Outer-Iter.   Inner-Iter.     Column Row Layer    Maximum-Head-Change  Column Row Layer    Maximum-Flux-Residual          L2-NORM 
          0                 1           2             4    7     1       0.5116585796E-01       4    7    1         0.2696230791E+01      0.5485624345E+01
          0                 2           2             4    7     1      -0.4977094947E-02       4    7    1        -0.2696266277E+00      0.5485642385E+00
          0                 3           2             4    7     1       0.3389212046E-03       4    7    1         0.1887383852E-01      0.3839948837E-01
          0                 4           1             4    7     1      -0.1348599438E-04       4    7    1        -0.7719412313E-03      0.1570543218E-02

    ------------------------------------------------
       NWT REQUIRED            4 OUTER ITERATIONS 
       AND A TOTAL OF          7 INNER ITERATIONS.
    ------------------------------------------------

 NO OUTPUT CONTROL FOR STRESS PERIOD   23   TIME STEP   25
 
 SOLVING FOR HEAD 
                                                   Max.-Head-Change                         Max.-Flux-Residual
  Residual-Control   Outer-Iter.   Inner-Iter.     Column Row Layer    Maximum-Head-Change  Column Row Layer    Maximum-Flux-Residual          L2-NORM 
          0                 1           2             4    7     1       0.5044825225E-01       4    7    1         0.2658447530E+01      0.5407902698E+01
          0                 2           2             4    7     1      -0.4907290371E-02       4    7    1        -0.2658482260E+00      0.5407920440E+00
          0                 3           2             4    7     1       0.3341677818E-03       4    7    1         0.1860935098E-01      0.3785543871E-01
          0                 4           1             4    7     1      -0.1329685078E-04       4    7    1        -0.7611236529E-03      0.1548289973E-02

    ------------------------------------------------
       NWT REQUIRED            4 OUTER ITERATIONS 
       AND A TOTAL OF          7 INNER ITERATIONS.
    ------------------------------------------------

 NO OUTPUT CONTROL FOR STRESS PERIOD   23   TIME STEP   26
 
 SOLVING FOR HEAD 
                                                   Max.-Head-Change                         Max.-Flux-Residual
  Residual-Control   Outer-Iter.   Inner-Iter.     Column Row Layer    Maximum-Head-Change  Column Row Layer    Maximum-Flux-Residual          L2-NORM 
          0                 1           2             4    7     1       0.4974030415E-01       4    7    1         0.2621160913E+01      0.5332010970E+01
          0                 2           2             4    7     1      -0.4838425219E-02       4    7    1        -0.2621194888E+00      0.5332028274E+00
          0                 3           2             4    7     1       0.3294783317E-03       4    7    1         0.1834834000E-01      0.3732419142E-01
          0                 4           1             4    7     1      -0.1311025347E-04       4    7    1        -0.7504482978E-03      0.1526564015E-02

    ------------------------------------------------
       NWT REQUIRED            4 OUTER ITERATIONS 
       AND A TOTAL OF          7 INNER ITERATIONS.
    ------------------------------------------------

 NO OUTPUT CONTROL FOR STRESS PERIOD   23   TIME STEP   27
 
 SOLVING FOR HEAD 
                                                   Max.-Head-Change                         Max.-Flux-Residual
  Residual-Control   Outer-Iter.   Inner-Iter.     Column Row Layer    Maximum-Head-Change  Column Row Layer    Maximum-Flux-Residual          L2-NORM 
          0                 1           2             4    7     1       0.4904221129E-01       4    7    1         0.2584382278E+01      0.5257895036E+01
          0                 2           2             4    7     1      -0.4770518719E-02       4    7    1        -0.2584415501E+00      0.5257911950E+00
          0                 3           2             4    7     1       0.3248541613E-03       4    7    1         0.1809088488E-01      0.3680537683E-01
          0                 4           1             4    7     1      -0.1292625331E-04       4    7    1        -0.7399183633E-03      0.1505343184E-02

    ------------------------------------------------
       NWT REQUIRED            4 OUTER ITERATIONS 
       AND A TOTAL OF          7 INNER ITERATIONS.
    ------------------------------------------------

 NO OUTPUT CONTROL FOR STRESS PERIOD   23   TIME STEP   28
 
 SOLVING FOR HEAD 
                                                   Max.-Head-Change                         Max.-Flux-Residual
  Residual-Control   Outer-Iter.   Inner-Iter.     Column Row Layer    Maximum-Head-Change  Column Row Layer    Maximum-Flux-Residual          L2-NORM 
          0                 1           2             4    7     1       0.4835400538E-01       4    7    1         0.2548114606E+01      0.5185480457E+01
          0                 2           2             4    7     1      -0.4703573957E-02       4    7    1        -0.2548147083E+00      0.5185496910E+00
          0                 3           2             4    7     1       0.3202954820E-03       4    7    1         0.1783700656E-01      0.3629846711E-01
          0                 4           1             4    7     1      -0.1274485907E-04       4    7    1        -0.7295347207E-03      0.1484608829E-02

    ------------------------------------------------
       NWT REQUIRED            4 OUTER ITERATIONS 
       AND A TOTAL OF          7 INNER ITERATIONS.
    ------------------------------------------------

 NO OUTPUT CONTROL FOR STRESS PERIOD   23   TIME STEP   29
 
 SOLVING FOR HEAD 
                                                   Max.-Head-Change                         Max.-Flux-Residual
  Residual-Control   Outer-Iter.   Inner-Iter.     Column Row Layer    Maximum-Head-Change  Column Row Layer    Maximum-Flux-Residual          L2-NORM 
          0                 1           2             4    7     1       0.4767556845E-01       4    7    1         0.2512352273E+01      0.5114714322E+01
          0                 2           2             4    7     1      -0.4637579459E-02       4    7    1        -0.2512384009E+00      0.5114730319E+00
          0                 3           2             4    7     1       0.3158015120E-03       4    7    1         0.1758666563E-01      0.3580310460E-01
          0                 4           1             4    7     1      -0.1256603989E-04       4    7    1        -0.7192957712E-03      0.1464348913E-02

    ------------------------------------------------
       NWT REQUIRED            4 OUTER ITERATIONS 
       AND A TOTAL OF          7 INNER ITERATIONS.
    ------------------------------------------------

 NO OUTPUT CONTROL FOR STRESS PERIOD   23   TIME STEP   30



 STREAM LISTING     PERIOD     23   STEP       30

 LAYER ROW COL. STREAM  RCH.  FLOW INTO     FLOW TO   FLOW OUT OF   OVRLND.     DIRECT     STREAM       STREAM     STREAM     STREAM   STREAMBED  STREAMBED
                SEG.NO.  NO.  STRM. RCH.    AQUIFER    STRM. RCH.    RUNOFF     PRECIP       ET          HEAD       DEPTH      WIDTH   CONDCTNC.   GRADIENT

   1    1    1     1     1    8.2501E+00  1.3178E-01   8.1183E+00  0.000E+00  0.000E+00  0.000E+00  1.09389E+03  8.424E-01  7.622E+00  3.430E-02  1.281E+00
   1    2    2     1     2    8.1183E+00  2.0241E-01   7.9159E+00  0.000E+00  0.000E+00  0.000E+00  1.08890E+03  8.367E-01  7.537E+00  5.276E-02  1.279E+00
   1    3    3     1     3    7.9159E+00  1.7099E-01   7.7449E+00  0.000E+00  0.000E+00  0.000E+00  1.08325E+03  8.302E-01  7.440E+00  4.464E-02  1.277E+00
   1    3    4     1     4    7.7449E+00  1.5612E-01   7.5888E+00  0.000E+00  0.000E+00  0.000E+00  1.07823E+03  8.244E-01  7.355E+00  4.082E-02  1.275E+00
   1    4    5     2     1    5.5888E+00  2.7178E-01   5.3170E+00  0.000E+00  0.000E+00  0.000E+00  1.07242E+03  4.843E-01  1.200E+01  7.800E-02  1.161E+00
   1    5    6     2     2    5.3170E+00  2.0828E-01   5.1088E+00  0.000E+00  0.000E+00  0.000E+00  1.06698E+03  4.714E-01  1.200E+01  6.000E-02  1.157E+00
   1    6    6     2     3    5.1088E+00  2.0760E-01   4.9012E+00  0.000E+00  0.000E+00  0.000E+00  1.06225E+03  4.600E-01  1.200E+01  6.000E-02  1.153E+00
   1    7    6     2     4    4.9012E+00  2.0691E-01   4.6943E+00  0.000E+00  0.000E+00  0.000E+00  1.05752E+03  4.485E-01  1.200E+01  6.000E-02  1.150E+00
   1    8    6     2     5    4.6943E+00  2.0621E-01   4.4880E+00  0.000E+00  0.000E+00  0.000E+00  1.05280E+03  4.368E-01  1.200E+01  6.000E-02  1.146E+00
   1    3    5     3     1    2.0000E+00  2.8252E-01   1.7175E+00  0.000E+00  0.000E+00  0.000E+00  1.07555E+03  1.909E+00  9.636E+00  7.227E-02  1.955E+00
   1    3    6     3     2    1.7175E+00  2.4905E-01   1.4684E+00  0.000E+00  0.000E+00  0.000E+00  1.07264E+03  1.727E+00  8.909E+00  6.682E-02  1.864E+00
   1    3    7     3     3    1.4684E+00  1.9718E-01   1.2712E+00  0.000E+00  0.000E+00  0.000E+00  1.06987E+03  1.555E+00  8.218E+00  5.547E-02  1.777E+00
   1    4    8     3     4    1.2712E+00  2.2567E-01   1.0456E+00  0.000E+00  0.000E+00  0.000E+00  1.06682E+03  1.364E+00  7.455E+00  6.709E-02  1.682E+00
   1    5    8     3     5    1.0456E+00  1.5790E-01   8.8768E-01  0.000E+00  0.000E+00  0.000E+00  1.06362E+03  1.164E+00  6.655E+00  4.991E-02  1.582E+00
   1    6    8     3     6    8.8768E-01  5.5980E-02   8.3170E-01  0.000E+00  0.000E+00  0.000E+00  1.06158E+03  1.036E+00  6.145E+00  1.844E-02  1.518E+00
   1    5   10     4     1    1.0000E+01  9.0919E-02   9.9091E+00  0.000E+00  0.000E+00  0.000E+00  1.07836E+03  6.368E-01  1.000E+01  2.500E-02  1.212E+00
   1    5    9     4     2    9.9091E+00  1.8158E-01   9.7275E+00  0.000E+00  0.000E+00  0.000E+00  1.07154E+03  6.315E-01  1.000E+01  5.000E-02  1.211E+00
   1    6    8     4     3    9.7275E+00  1.2689E-01   9.6006E+00  0.000E+00  0.000E+00  0.000E+00  1.06381E+03  6.256E-01  1.000E+01  3.500E-02  1.209E+00
   1    6    8     5     1    1.0432E+01  2.2686E-01   1.0205E+01  0.000E+00  0.000E+00  0.000E+00  1.05868E+03  6.790E-01  1.542E+01  6.166E-02  1.226E+00
   1    7    7     5     2    1.0205E+01  2.7894E-01   9.9265E+00  0.000E+00  0.000E+00  0.000E+00  1.05417E+03  6.732E-01  1.519E+01  7.594E-02  1.224E+00
   1    8    7     5     3    9.9265E+00  1.9221E-01   9.7343E+00  0.000E+00  0.000E+00  0.000E+00  1.04992E+03  6.676E-01  1.497E+01  5.241E-02  1.223E+00
   1    8    6     5     4    9.7343E+00  1.3577E-01   9.5985E+00  0.000E+00  0.000E+00  0.000E+00  1.04691E+03  6.637E-01  1.482E+01  3.706E-02  1.221E+00
   1    9    6     6     1    1.4087E+01  2.3167E-01   1.3855E+01  0.000E+00  0.000E+00  0.000E+00  1.04359E+03  8.612E-01  1.200E+01  6.000E-02  1.287E+00
   1   10    7     6     2    1.3855E+01  2.3116E-01   1.3624E+01  0.000E+00  0.000E+00  0.000E+00  1.03903E+03  8.526E-01  1.200E+01  6.000E-02  1.284E+00
   1   11    7     6     3    1.3624E+01  2.3064E-01   1.3393E+01  0.000E+00  0.000E+00  0.000E+00  1.03448E+03  8.440E-01  1.200E+01  6.000E-02  1.281E+00
   1   12    7     6     4    1.3393E+01  2.3012E-01   1.3163E+01  0.000E+00  0.000E+00  0.000E+00  1.02993E+03  8.353E-01  1.200E+01  6.000E-02  1.278E+00
   1   13    7     6     5    1.3163E+01  9.8147E-04   1.3162E+01  0.000E+00  0.000E+00  0.000E+00  1.02674E+03  8.309E-01  1.200E+01  2.400E-02  1.363E-02
   1   14    9     7     1    1.5000E+02  1.3760E+00   1.4862E+02  0.000E+00  0.000E+00  0.000E+00  1.03987E+03  2.288E+00  5.529E+01  5.593E-01  8.201E-01
   1   13    8     7     2    1.4862E+02  1.9563E+00   1.4667E+02  0.000E+00  0.000E+00  0.000E+00  1.03478E+03  2.279E+00  5.525E+01  6.147E-01  1.061E+00
   1   13    7     7     3    1.4667E+02  1.6692E+00   1.4500E+02  0.000E+00  0.000E+00  0.000E+00  1.02969E+03  2.269E+00  5.521E+01  5.584E-01  9.964E-01
   1   13    6     8     1    1.5816E+02  1.0525E+00   1.5711E+02  0.000E+00  0.000E+00  0.000E+00  1.02474E+03  2.870E+00  4.161E+01  4.240E-01  8.274E-01
   1   13    5     8     2    1.5711E+02  3.0836E-01   1.5680E+02  0.000E+00  0.000E+00  0.000E+00  1.01849E+03  2.865E+00  4.154E+01  4.233E-01  2.428E-01
   1   13    4     8     3    1.5680E+02 -1.9643E+00   1.5876E+02  0.000E+00  0.000E+00  0.000E+00  1.01225E+03  2.871E+00  4.163E+01  4.242E+00 -1.544E-01
   1   13    3     8     4    1.5876E+02 -3.4156E+00   1.6218E+02  0.000E+00  0.000E+00  0.000E+00  1.00601E+03  2.889E+00  4.189E+01  4.269E+00 -2.667E-01
   1   13    2     8     5    1.6218E+02 -2.5171E+00   1.6470E+02  0.000E+00  0.000E+00  0.000E+00  9.99784E+02  2.909E+00  4.218E+01  4.298E+00 -1.952E-01
   1   13    1     8     6    1.6470E+02 -1.9586E+00   1.6666E+02  0.000E+00  0.000E+00  0.000E+00  9.94799E+02  2.924E+00  4.240E+01  2.592E+00 -2.519E-01
   1    8    6     9     1    0.0000E+00  0.0000E+00   0.0000E+00  0.000E+00  0.000E+00  0.000E+00  1.07875E+03  0.000E+00  4.000E+00  0.000E+00  1.000E+00
   1    8    5     9     2    0.0000E+00  0.0000E+00   0.0000E+00  0.000E+00  0.000E+00  0.000E+00  1.07825E+03  0.000E+00  4.000E+00  0.000E+00  1.000E+00





UNSATURATED ZONE PACKAGE VOLUMETRIC BUDGET FOR  TIME STEP    30 STRESS PERIOD   23
  ------------------------------------------------------------------------------



     CUMULATIVE VOLUMES      L**3       RATES FOR THIS TIME STEP      L**3/T
     ------------------                 ------------------------

           IN:                                      IN:
           ---                                      ---
        INFILTRATION =  1032229151.5314          INFILTRATION =           0.8475

          OUT:                                     OUT:
          ----                                     ----
              UZF ET =   857393427.9506                UZF ET =           0.8475
        UZF RECHARGE =       73224.0000          UZF RECHARGE =       0.0000E+00

            IN - OUT =   174762499.5808              IN - OUT =       0.0000E+00

          STORAGE:                                 STORAGE:
          --------                                 --------
      STORAGE CHANGE =   174762975.9929        STORAGE CHANGE =       2.5496E-13

 PERCENT DISCREPANCY IS DIFFERENCE BETWEEN IN-OUT MINUS CHANGE IN STORAGE
 DIVIDED BY THE AVERAGE OF IN AND OUT TIMES 100

 PERCENT DISCREPANCY =          -0.00     PERCENT DISCREPANCY =           0.00






1
  VOLUMETRIC BUDGET FOR AGRICULTURAL FIELDS AT  END OF TIME STEP   30, STRESS PERIOD  23
  ------------------------------------------------------------------------------

     CUMULATIVE VOLUMES      L**3       RATES FOR THIS TIME STEP      L**3/T
     ------------------                 ------------------------

           IN:                                      IN:
           ---                                      ---
               AG WELLS  =   665535360.0000                 AG WELLS  =           0.0000
      DIVERSION SEGMENTS =   317583232.0000        DIVERSION SEGMENTS =           0.0000
           GW IRRIGATION =           0.0000             GW IRRIGATION =           0.0000
           SW IRRIGATION =           0.0000             SW IRRIGATION =           0.0000
        SYSTEM LOSSES GW =           0.0000          SYSTEM LOSSES GW =           0.0000
        SYSTEM LOSSES SW =           0.0000          SYSTEM LOSSES SW =           0.0000

                TOTAL IN =   983118592.0000                  TOTAL IN =           0.0000

          OUT:                                     OUT:
          ----                                     ----
               AG WELLS  =           0.0000                 AG WELLS  =           0.0000
      DIVERSION SEGMENTS =           0.0000        DIVERSION SEGMENTS =           0.0000
           GW IRRIGATION =   665535360.0000             GW IRRIGATION =           0.0000
           SW IRRIGATION =   317589344.0000             SW IRRIGATION =           0.0000
        SYSTEM LOSSES GW =           0.0000          SYSTEM LOSSES GW =           0.0000
        SYSTEM LOSSES SW =           0.0000          SYSTEM LOSSES SW =           0.0000

               TOTAL OUT =   983124736.0000                 TOTAL OUT =           0.0000

                IN - OUT =       -6144.0000                  IN - OUT =           0.0000

     PERCENT DISCREPANCY =          -0.00         PERCENT DISCREPANCY =           0.00



1
  VOLUMETRIC BUDGET FOR ENTIRE MODEL AT END OF TIME STEP   30, STRESS PERIOD  23
  ------------------------------------------------------------------------------

     CUMULATIVE VOLUMES      L**3       RATES FOR THIS TIME STEP      L**3/T
     ------------------                 ------------------------

           IN:                                      IN:
           ---                                      ---
             STORAGE     =   923202112.0000               STORAGE     =          11.7983
       CONSTANT HEAD     =           0.0000         CONSTANT HEAD     =           0.0000
     HEAD DEP BOUNDS     =    16692618.0000       HEAD DEP BOUNDS     =           0.2885
      STREAM LEAKAGE     =   682159168.0000        STREAM LEAKAGE     =          11.4504
        UZF RECHARGE     =       73223.9531          UZF RECHARGE     =           0.0000
               GW ET     =           0.0000                 GW ET     =           0.0000
     SURFACE LEAKAGE     =           0.0000       SURFACE LEAKAGE     =           0.0000
           AG WELLS      =           0.0000             AG WELLS      =           0.0000

                TOTAL IN =  1622127104.0000                  TOTAL IN =          23.5372

          OUT:                                     OUT:
          ----                                     ----
             STORAGE     =   349743648.0000               STORAGE     =          13.3945
       CONSTANT HEAD     =           0.0000         CONSTANT HEAD     =           0.0000
     HEAD DEP BOUNDS     =    16692970.0000       HEAD DEP BOUNDS     =           0.2871
      STREAM LEAKAGE     =   590163200.0000        STREAM LEAKAGE     =           9.8556
        UZF RECHARGE     =           0.0000          UZF RECHARGE     =           0.0000
               GW ET     =           0.0000                 GW ET     =           0.0000
     SURFACE LEAKAGE     =           0.0000       SURFACE LEAKAGE     =           0.0000
           AG WELLS      =   665535360.0000             AG WELLS      =           0.0000

               TOTAL OUT =  1622135168.0000                 TOTAL OUT =          23.5372

                IN - OUT =       -8064.0000                  IN - OUT =       1.1444E-05

     PERCENT DISCREPANCY =          -0.00         PERCENT DISCREPANCY =           0.00






         TIME SUMMARY AT END OF TIME STEP   30 IN STRESS PERIOD   23
                    SECONDS     MINUTES      HOURS       DAYS        YEARS
                    -----------------------------------------------------------
   TIME STEP LENGTH  87667.      1461.1      24.352      1.0147     2.77799E-03
 STRESS PERIOD TIME 2.63000E+06  43833.      730.56      30.440     8.33397E-02
         TOTAL TIME 5.79467E+07 9.65778E+05  16096.      670.68      1.8362    
1
1
                            STRESS PERIOD NO.   24, LENGTH =   2630000.    
                            -----------------------------------------------

                              NUMBER OF TIME STEPS =    30

                               MULTIPLIER FOR DELT =     1.000

                            INITIAL TIME STEP SIZE =   87666.66    

 REUSING NON-PARAMETER GHB CELLS FROM LAST STRESS PERIOD

      2 GHB CELLS

 REUSING STREAM SEGMENT DATA FROM LAST STRESS PERIOD



            AREAL INFILTRATION RATE
 READING ON UNIT   19 WITH FORMAT: (FREE)              

            1           2           3           4           5           6           7           8           9          10
 ........................................................................................................................
   1   1.0000E-10  2.0000E-10   0.000       0.000       0.000       0.000       0.000       0.000       0.000       0.000    
   2   2.0000E-10  1.0000E-10  2.0000E-10   0.000       0.000      8.0000E-10  8.0000E-10  5.0000E-10   0.000       0.000    
   3    0.000      5.0000E-10  1.0000E-10  1.0000E-10  8.0000E-10  8.0000E-10  5.0000E-10  5.0000E-10   0.000       0.000    
   4   8.0000E-10  5.0000E-10  1.0000E-10  1.0000E-10  1.0000E-10  1.0000E-10  1.0000E-10  1.0000E-10  2.0000E-10   0.000    
   5   8.0000E-10  5.0000E-10  1.0000E-10  1.0000E-10  1.0000E-10  1.0000E-10  1.0000E-10  1.0000E-10  1.0000E-10  1.0000E-10
   6   8.0000E-10  5.0000E-10  5.0000E-10  2.0000E-10  2.0000E-10  1.0000E-10  1.0000E-10  1.0000E-10  1.0000E-10  5.0000E-10
   7   8.0000E-10  5.0000E-10  5.0000E-10  2.0000E-10  2.0000E-10  1.0000E-10  1.0000E-10  2.0000E-10  2.0000E-10   0.000    
   8    0.000      5.0000E-10  5.0000E-10  2.0000E-10  2.0000E-10  1.0000E-10  1.0000E-10  2.0000E-10  5.0000E-10   0.000    
   9    0.000      5.0000E-10  5.0000E-10  2.0000E-10  2.0000E-10  1.0000E-10  1.0000E-10  2.0000E-10  5.0000E-10   0.000    
  10    0.000      5.0000E-10  5.0000E-10  2.0000E-10  2.0000E-10  1.0000E-10  1.0000E-10  2.0000E-10  5.0000E-10  8.0000E-10
  11    0.000      1.0000E-10  1.0000E-10  1.0000E-10  1.0000E-10  1.0000E-10  1.0000E-10  2.0000E-10  5.0000E-10   0.000    
  12   1.0000E-10  1.0000E-10  1.0000E-10  1.0000E-10  1.0000E-10  1.0000E-10  1.0000E-10  1.0000E-10  2.0000E-10   0.000    
  13   1.0000E-10  1.0000E-10  2.0000E-10  2.0000E-10  2.0000E-10  2.0000E-10  2.0000E-10  1.0000E-10  1.0000E-10   0.000    
  14    0.000      2.0000E-10  5.0000E-10  5.0000E-10  5.0000E-10  5.0000E-10  5.0000E-10  2.0000E-10  1.0000E-10   0.000    
  15    0.000       0.000      8.0000E-10  8.0000E-10  8.0000E-10  8.0000E-10   0.000       0.000       0.000       0.000    

                  ET RATE =  5.000000E-10

 USING ET EXTINCTION DEPTH FROM PREVIOUS STRESS PERIOD. CURRENT PERIOD IS:      24

 USING EXTINCTION WATER CONTENT FROM PREVIOUS STRESS PERIOD. CURRENT PERIOD IS:      24

 USING AIR ENTRY PRESSURE FROM PREVIOUS STRESS PERIOD. CURRENT PERIOD IS:      24

 USING ROOT PRESSURE HEAD FROM PREVIOUS STRESS PERIOD. CURRENT PERIOD IS:      24

 USING ROOT ACTIVITY FROM PREVIOUS STRESS PERIOD. CURRENT PERIOD IS:      24

 PROCESSING AG STRESS PERIOD DATA

 READING AG STRESS PERIOD DATA

 READING IRRIGATION SEGMENT

 READING IRRIGATION WELL

 READING SUPPLEMENTAL WELL

 END PROCESSING AG STRESS PERIOD DATA OPTIONS
 
 SOLVING FOR HEAD 
                                                   Max.-Head-Change                         Max.-Flux-Residual
  Residual-Control   Outer-Iter.   Inner-Iter.     Column Row Layer    Maximum-Head-Change  Column Row Layer    Maximum-Flux-Residual          L2-NORM 
          0                 1           2             4    7     1       0.4700704175E-01       4    7    1         0.2477103700E+01      0.5045857809E+01
          0                 2           2             4    7     1      -0.4572548966E-02       4    7    1        -0.2477134703E+00      0.5045872265E+00
          0                 3           2             4    7     1       0.3113731868E-03       4    7    1         0.1733992107E-01      0.3532108368E-01
          0                 4           1             4    7     1      -0.1238983272E-04       4    7    1        -0.7092038932E-03      0.1444632858E-02

    ------------------------------------------------
       NWT REQUIRED            4 OUTER ITERATIONS 
       AND A TOTAL OF          7 INNER ITERATIONS.
    ------------------------------------------------

 NO OUTPUT CONTROL FOR STRESS PERIOD   24   TIME STEP    1
 
 SOLVING FOR HEAD 
                                                   Max.-Head-Change                         Max.-Flux-Residual
  Residual-Control   Outer-Iter.   Inner-Iter.     Column Row Layer    Maximum-Head-Change  Column Row Layer    Maximum-Flux-Residual          L2-NORM 
          0                 1           2             4    7     1       0.4634840851E-01       4    7    1         0.2442368942E+01      0.4978732073E+01
          0                 2           2             4    7     1      -0.4508480851E-02       4    7    1        -0.2442399221E+00      0.4978743716E+00
          0                 3           2             4    7     1       0.3070103965E-03       4    7    1         0.1709677329E-01      0.3485115876E-01
          0                 4           1             4    7     1      -0.1221623308E-04       4    7    1        -0.6992591350E-03      0.1425409349E-02

    ------------------------------------------------
       NWT REQUIRED            4 OUTER ITERATIONS 
       AND A TOTAL OF          7 INNER ITERATIONS.
    ------------------------------------------------

 NO OUTPUT CONTROL FOR STRESS PERIOD   24   TIME STEP    2
 
 SOLVING FOR HEAD 
                                                   Max.-Head-Change                         Max.-Flux-Residual
  Residual-Control   Outer-Iter.   Inner-Iter.     Column Row Layer    Maximum-Head-Change  Column Row Layer    Maximum-Flux-Residual          L2-NORM 
          0                 1           2             4    7     1       0.4569977592E-01       4    7    1         0.2408154401E+01      0.4912581446E+01
          0                 2           2             4    7     1      -0.4445385539E-02       4    7    1        -0.2408183965E+00      0.4912592735E+00
          0                 3           2             4    7     1       0.3027138496E-03       4    7    1         0.1685726705E-01      0.3438809862E-01
          0                 4           1             4    7     1      -0.1204526940E-04       4    7    1        -0.6894633211E-03      0.1406471646E-02

    ------------------------------------------------
       NWT REQUIRED            4 OUTER ITERATIONS 
       AND A TOTAL OF          7 INNER ITERATIONS.
    ------------------------------------------------

 NO OUTPUT CONTROL FOR STRESS PERIOD   24   TIME STEP    3
 
 SOLVING FOR HEAD 
                                                   Max.-Head-Change                         Max.-Flux-Residual
  Residual-Control   Outer-Iter.   Inner-Iter.     Column Row Layer    Maximum-Head-Change  Column Row Layer    Maximum-Flux-Residual          L2-NORM 
          0                 1           2             4    7     1       0.4506083135E-01       4    7    1         0.2374443822E+01      0.4847863178E+01
          0                 2           2             4    7     1      -0.4383232621E-02       4    7    1        -0.2374472681E+00      0.4847874202E+00
          0                 3           2             4    7     1       0.2984814766E-03       4    7    1         0.1662128865E-01      0.3393507799E-01
          0                 4           1             4    7     1      -0.1187685925E-04       4    7    1        -0.6798117761E-03      0.1387946742E-02

    ------------------------------------------------
       NWT REQUIRED            4 OUTER ITERATIONS 
       AND A TOTAL OF          7 INNER ITERATIONS.
    ------------------------------------------------

 NO OUTPUT CONTROL FOR STRESS PERIOD   24   TIME STEP    4
 
 SOLVING FOR HEAD 
                                                   Max.-Head-Change                         Max.-Flux-Residual
  Residual-Control   Outer-Iter.   Inner-Iter.     Column Row Layer    Maximum-Head-Change  Column Row Layer    Maximum-Flux-Residual          L2-NORM 
          0                 1           2             4    7     1       0.4443179717E-01       4    7    1         0.2341250082E+01      0.4784543223E+01
          0                 2           2             4    7     1      -0.4322043730E-02       4    7    1        -0.2341278246E+00      0.4784553631E+00
          0                 3           2             4    7     1       0.2943147498E-03       4    7    1         0.1638892815E-01      0.3349183038E-01
          0                 4           1             4    7     1      -0.1171106123E-04       4    7    1        -0.6703082208E-03      0.1369812059E-02

    ------------------------------------------------
       NWT REQUIRED            4 OUTER ITERATIONS 
       AND A TOTAL OF          7 INNER ITERATIONS.
    ------------------------------------------------

 NO OUTPUT CONTROL FOR STRESS PERIOD   24   TIME STEP    5
 
 SOLVING FOR HEAD 
                                                   Max.-Head-Change                         Max.-Flux-Residual
  Residual-Control   Outer-Iter.   Inner-Iter.     Column Row Layer    Maximum-Head-Change  Column Row Layer    Maximum-Flux-Residual          L2-NORM 
          0                 1           2             4    7     1       0.4381261040E-01       4    7    1         0.2308570168E+01      0.4722584729E+01
          0                 2           2             4    7     1      -0.4261812739E-02       4    7    1        -0.2308597650E+00      0.4722595140E+00
          0                 3           2             4    7     1       0.2902132524E-03       4    7    1         0.1616016453E-01      0.3305812202E-01
          0                 4           1             4    7     1      -0.1154785887E-04       4    7    1        -0.6609517659E-03      0.1352075320E-02

    ------------------------------------------------
       NWT REQUIRED            4 OUTER ITERATIONS 
       AND A TOTAL OF          7 INNER ITERATIONS.
    ------------------------------------------------

 NO OUTPUT CONTROL FOR STRESS PERIOD   24   TIME STEP    6
 
 SOLVING FOR HEAD 
                                                   Max.-Head-Change                         Max.-Flux-Residual
  Residual-Control   Outer-Iter.   Inner-Iter.     Column Row Layer    Maximum-Head-Change  Column Row Layer    Maximum-Flux-Residual          L2-NORM 
          0                 1           2             4    7     1       0.4320319360E-01       4    7    1         0.2276400815E+01      0.4661933873E+01
          0                 2           2             4    7     1      -0.4202532117E-02       4    7    1        -0.2276427626E+00      0.4661943905E+00
          0                 3           2             4    7     1       0.2861764711E-03       4    7    1         0.1593497489E-01      0.3263356059E-01
          0                 4           1             4    7     1      -0.1138723112E-04       4    7    1        -0.6517414786E-03      0.1334711825E-02

    ------------------------------------------------
       NWT REQUIRED            4 OUTER ITERATIONS 
       AND A TOTAL OF          7 INNER ITERATIONS.
    ------------------------------------------------

 NO OUTPUT CONTROL FOR STRESS PERIOD   24   TIME STEP    7
 
 SOLVING FOR HEAD 
                                                   Max.-Head-Change                         Max.-Flux-Residual
  Residual-Control   Outer-Iter.   Inner-Iter.     Column Row Layer    Maximum-Head-Change  Column Row Layer    Maximum-Flux-Residual          L2-NORM 
          0                 1           2             4    7     1       0.4260333009E-01       4    7    1         0.2244730735E+01      0.4602548866E+01
          0                 2           2             4    7     1      -0.4144180788E-02       4    7    1        -0.2244756886E+00      0.4602558572E+00
          0                 3           2             4    7     1       0.2822029718E-03       4    7    1         0.1571328025E-01      0.3221786047E-01
          0                 4           1             4    7     1      -0.1122912212E-04       4    7    1        -0.6426741757E-03      0.1317708031E-02

    ------------------------------------------------
       NWT REQUIRED            4 OUTER ITERATIONS 
       AND A TOTAL OF          7 INNER ITERATIONS.
    ------------------------------------------------

 NO OUTPUT CONTROL FOR STRESS PERIOD   24   TIME STEP    8
 
 SOLVING FOR HEAD 
                                                   Max.-Head-Change                         Max.-Flux-Residual
  Residual-Control   Outer-Iter.   Inner-Iter.     Column Row Layer    Maximum-Head-Change  Column Row Layer    Maximum-Flux-Residual          L2-NORM 
          0                 1           2             4    7     1       0.4201320490E-01       4    7    1         0.2213570516E+01      0.4544408226E+01
          0                 2           2             4    7     1      -0.4086776749E-02       4    7    1        -0.2213596019E+00      0.4544417520E+00
          0                 3           2             4    7     1       0.2782939789E-03       4    7    1         0.1549515469E-01      0.3181087386E-01
          0                 4           1             4    7     1      -0.1107357990E-04       4    7    1        -0.6337528341E-03      0.1301066074E-02

    ------------------------------------------------
       NWT REQUIRED            4 OUTER ITERATIONS 
       AND A TOTAL OF          7 INNER ITERATIONS.
    ------------------------------------------------

 NO OUTPUT CONTROL FOR STRESS PERIOD   24   TIME STEP    9
 
 SOLVING FOR HEAD 
                                                   Max.-Head-Change                         Max.-Flux-Residual
  Residual-Control   Outer-Iter.   Inner-Iter.     Column Row Layer    Maximum-Head-Change  Column Row Layer    Maximum-Flux-Residual          L2-NORM 
          0                 1           2             4    7     1       0.4143257842E-01       4    7    1         0.2182907928E+01      0.4487458049E+01
          0                 2           2             4    7     1      -0.4030296695E-02       4    7    1        -0.2182932797E+00      0.4487466966E+00
          0                 3           2             4    7     1       0.2744479057E-03       4    7    1         0.1528051265E-01      0.3141222143E-01
          0                 4           1             4    7     1      -0.1092054067E-04       4    7    1        -0.6249739599E-03      0.1284761311E-02

    ------------------------------------------------
       NWT REQUIRED            4 OUTER ITERATIONS 
       AND A TOTAL OF          7 INNER ITERATIONS.
    ------------------------------------------------

 NO OUTPUT CONTROL FOR STRESS PERIOD   24   TIME STEP   10
 
 SOLVING FOR HEAD 
                                                   Max.-Head-Change                         Max.-Flux-Residual
  Residual-Control   Outer-Iter.   Inner-Iter.     Column Row Layer    Maximum-Head-Change  Column Row Layer    Maximum-Flux-Residual          L2-NORM 
          0                 1           2             4    7     1       0.4086134894E-01       4    7    1         0.2152737823E+01      0.4431665515E+01
          0                 2           2             4    7     1      -0.3974730731E-02       4    7    1        -0.2152762071E+00      0.4431674148E+00
          0                 3           2             4    7     1       0.2706640780E-03       4    7    1         0.1506931805E-01      0.3102167107E-01
          0                 4           1             4    7     1      -0.1076997852E-04       4    7    1        -0.6163360656E-03      0.1268781728E-02

    ------------------------------------------------
       NWT REQUIRED            4 OUTER ITERATIONS 
       AND A TOTAL OF          7 INNER ITERATIONS.
    ------------------------------------------------

 NO OUTPUT CONTROL FOR STRESS PERIOD   24   TIME STEP   11
 
 SOLVING FOR HEAD 
                                                   Max.-Head-Change                         Max.-Flux-Residual
  Residual-Control   Outer-Iter.   Inner-Iter.     Column Row Layer    Maximum-Head-Change  Column Row Layer    Maximum-Flux-Residual          L2-NORM 
          0                 1           2             4    7     1       0.4029940668E-01       4    7    1         0.2123054928E+01      0.4377002153E+01
          0                 2           2             4    7     1      -0.3920068178E-02       4    7    1        -0.2123078567E+00      0.4377010496E+00
          0                 3           2             4    7     1       0.2669417699E-03       4    7    1         0.1486153402E-01      0.3063899508E-01
          0                 4           1             4    7     1      -0.1062186467E-04       4    7    1        -0.6078377010E-03      0.1253323074E-02

    ------------------------------------------------
       NWT REQUIRED            4 OUTER ITERATIONS 
       AND A TOTAL OF          7 INNER ITERATIONS.
    ------------------------------------------------

 NO OUTPUT CONTROL FOR STRESS PERIOD   24   TIME STEP   12
 
 SOLVING FOR HEAD 
                                                   Max.-Head-Change                         Max.-Flux-Residual
  Residual-Control   Outer-Iter.   Inner-Iter.     Column Row Layer    Maximum-Head-Change  Column Row Layer    Maximum-Flux-Residual          L2-NORM 
          0                 1           2             4    7     1       0.3974677341E-01       4    7    1         0.2093860828E+01      0.4323435260E+01
          0                 2           2             4    7     1      -0.3866311157E-02       4    7    1        -0.2093883872E+00      0.4323443206E+00
          0                 3           2             4    7     1       0.2632811243E-03       4    7    1         0.1465717163E-01      0.3026405867E-01
          0                 4           1             4    7     1      -0.1047620351E-04       4    7    1        -0.5994792427E-03      0.1237805910E-02

    ------------------------------------------------
       NWT REQUIRED            4 OUTER ITERATIONS 
       AND A TOTAL OF          7 INNER ITERATIONS.
    ------------------------------------------------

 NO OUTPUT CONTROL FOR STRESS PERIOD   24   TIME STEP   13
 
 SOLVING FOR HEAD 
                                                   Max.-Head-Change                         Max.-Flux-Residual
  Residual-Control   Outer-Iter.   Inner-Iter.     Column Row Layer    Maximum-Head-Change  Column Row Layer    Maximum-Flux-Residual          L2-NORM 
          0                 1           2             4    7     1       0.3920332717E-01       4    7    1         0.2065149377E+01      0.4270928714E+01
          0                 2           2             4    7     1      -0.3813447801E-02       4    7    1        -0.2065171838E+00      0.4270936180E+00
          0                 3           2             4    7     1       0.2596813345E-03       4    7    1         0.1445618786E-01      0.2989650088E-01
          0                 4           1             4    7     1      -0.1033296485E-04       4    7    1        -0.5912590091E-03      0.1222762031E-02

    ------------------------------------------------
       NWT REQUIRED            4 OUTER ITERATIONS 
       AND A TOTAL OF          7 INNER ITERATIONS.
    ------------------------------------------------

 NO OUTPUT CONTROL FOR STRESS PERIOD   24   TIME STEP   14
 
 SOLVING FOR HEAD 
                                                   Max.-Head-Change                         Max.-Flux-Residual
  Residual-Control   Outer-Iter.   Inner-Iter.     Column Row Layer    Maximum-Head-Change  Column Row Layer    Maximum-Flux-Residual          L2-NORM 
          0                 1           2             4    7     1       0.3866894369E-01       4    7    1         0.2036914250E+01      0.4219465585E+01
          0                 2           2             4    7     1      -0.3761466024E-02       4    7    1        -0.2036936142E+00      0.4219472693E+00
          0                 3           2             4    7     1       0.2561415761E-03       4    7    1         0.1425853844E-01      0.2953625876E-01
          0                 4           1             4    7     1      -0.1019211441E-04       4    7    1        -0.5831751284E-03      0.1208039572E-02

    ------------------------------------------------
       NWT REQUIRED            4 OUTER ITERATIONS 
       AND A TOTAL OF          7 INNER ITERATIONS.
    ------------------------------------------------

 NO OUTPUT CONTROL FOR STRESS PERIOD   24   TIME STEP   15
 
 SOLVING FOR HEAD 
                                                   Max.-Head-Change                         Max.-Flux-Residual
  Residual-Control   Outer-Iter.   Inner-Iter.     Column Row Layer    Maximum-Head-Change  Column Row Layer    Maximum-Flux-Residual          L2-NORM 
          0                 1           2             4    7     1       0.3814349366E-01       4    7    1         0.2009149005E+01      0.4169002993E+01
          0                 2           2             4    7     1      -0.3710353247E-02       4    7    1        -0.2009170340E+00      0.4169009854E+00
          0                 3           2             4    7     1       0.2526609939E-03       4    7    1         0.1406417828E-01      0.2918302523E-01
          0                 4           1             4    7     1      -0.1005361913E-04       4    7    1        -0.5752257955E-03      0.1193588409E-02

    ------------------------------------------------
       NWT REQUIRED            4 OUTER ITERATIONS 
       AND A TOTAL OF          7 INNER ITERATIONS.
    ------------------------------------------------

 NO OUTPUT CONTROL FOR STRESS PERIOD   24   TIME STEP   16
 
 SOLVING FOR HEAD 
                                                   Max.-Head-Change                         Max.-Flux-Residual
  Residual-Control   Outer-Iter.   Inner-Iter.     Column Row Layer    Maximum-Head-Change  Column Row Layer    Maximum-Flux-Residual          L2-NORM 
          0                 1           2             4    7     1       0.3762684715E-01       4    7    1         0.1981846938E+01      0.4119523596E+01
          0                 2           2             4    7     1      -0.3660096832E-02       4    7    1        -0.1981867730E+00      0.4119530074E+00
          0                 3           2             4    7     1       0.2492387256E-03       4    7    1         0.1387306043E-01      0.2883666763E-01
          0                 4           1             4    7     1      -0.9917443326E-05       4    7    1        -0.5674090385E-03      0.1179422557E-02

    ------------------------------------------------
       NWT REQUIRED            4 OUTER ITERATIONS 
       AND A TOTAL OF          7 INNER ITERATIONS.
    ------------------------------------------------

 NO OUTPUT CONTROL FOR STRESS PERIOD   24   TIME STEP   17
 
 SOLVING FOR HEAD 
                                                   Max.-Head-Change                         Max.-Flux-Residual
  Residual-Control   Outer-Iter.   Inner-Iter.     Column Row Layer    Maximum-Head-Change  Column Row Layer    Maximum-Flux-Residual          L2-NORM 
          0                 1           2             4    7     1       0.3711900710E-01       4    7    1         0.1955008594E+01      0.4071000555E+01
          0                 2           2             4    7     1      -0.3610697065E-02       4    7    1        -0.1955028855E+00      0.4071006690E+00
          0                 3           2             4    7     1       0.2458747925E-03       4    7    1         0.1368518873E-01      0.2849699940E-01
          0                 4           1             4    7     1      -0.9783589185E-05       4    7    1        -0.5597250731E-03      0.1165526337E-02

    ------------------------------------------------
       NWT REQUIRED            4 OUTER ITERATIONS 
       AND A TOTAL OF          7 INNER ITERATIONS.
    ------------------------------------------------

 NO OUTPUT CONTROL FOR STRESS PERIOD   24   TIME STEP   18
 
 SOLVING FOR HEAD 
                                                   Max.-Head-Change                         Max.-Flux-Residual
  Residual-Control   Outer-Iter.   Inner-Iter.     Column Row Layer    Maximum-Head-Change  Column Row Layer    Maximum-Flux-Residual          L2-NORM 
          0                 1           2             4    7     1       0.3661969920E-01       4    7    1         0.1928619562E+01      0.4023401577E+01
          0                 2           2             4    7     1      -0.3562127260E-02       4    7    1        -0.1928639305E+00      0.4023407261E+00
          0                 3           2             4    7     1       0.2425673764E-03       4    7    1         0.1350046230E-01      0.2816379336E-01
          0                 4           1             4    7     1      -0.9651984177E-05       4    7    1        -0.5521697626E-03      0.1151903189E-02

    ------------------------------------------------
       NWT REQUIRED            4 OUTER ITERATIONS 
       AND A TOTAL OF          7 INNER ITERATIONS.
    ------------------------------------------------

 NO OUTPUT CONTROL FOR STRESS PERIOD   24   TIME STEP   19
 
 SOLVING FOR HEAD 
                                                   Max.-Head-Change                         Max.-Flux-Residual
  Residual-Control   Outer-Iter.   Inner-Iter.     Column Row Layer    Maximum-Head-Change  Column Row Layer    Maximum-Flux-Residual          L2-NORM 
          0                 1           2             4    7     1       0.3612878655E-01       4    7    1         0.1902672902E+01      0.3976698257E+01
          0                 2           2             4    7     1      -0.3514373048E-02       4    7    1        -0.1902692139E+00      0.3976165436E+00
          0                 3           2             4    7     1       0.2393154986E-03       4    7    1         0.1331883252E-01      0.2783312473E-01
          0                 4           1             4    7     1      -0.9522589043E-05       4    7    1        -0.5447410997E-03      0.1138399280E-02

    ------------------------------------------------
       NWT REQUIRED            4 OUTER ITERATIONS 
       AND A TOTAL OF          7 INNER ITERATIONS.
    ------------------------------------------------

 NO OUTPUT CONTROL FOR STRESS PERIOD   24   TIME STEP   20
 
 SOLVING FOR HEAD 
                                                   Max.-Head-Change                         Max.-Flux-Residual
  Residual-Control   Outer-Iter.   Inner-Iter.     Column Row Layer    Maximum-Head-Change  Column Row Layer    Maximum-Flux-Residual          L2-NORM 
          0                 1           2             4    7     1       0.3564627806E-01       4    7    1         0.1877168854E+01      0.3930929513E+01
          0                 2           2             4    7     1      -0.3467438461E-02       4    7    1        -0.1877187598E+00      0.3930934956E+00
          0                 3           2             4    7     1       0.2361194345E-03       4    7    1         0.1314030113E-01      0.2751650921E-01
          0                 4           1             4    7     1      -0.9395414606E-05       4    7    1        -0.5374391480E-03      0.1125423853E-02

    ------------------------------------------------
       NWT REQUIRED            4 OUTER ITERATIONS 
       AND A TOTAL OF          7 INNER ITERATIONS.
    ------------------------------------------------

 NO OUTPUT CONTROL FOR STRESS PERIOD   24   TIME STEP   21
 
 SOLVING FOR HEAD 
                                                   Max.-Head-Change                         Max.-Flux-Residual
  Residual-Control   Outer-Iter.   Inner-Iter.     Column Row Layer    Maximum-Head-Change  Column Row Layer    Maximum-Flux-Residual          L2-NORM 
          0                 1           2             4    7     1       0.3517202223E-01       4    7    1         0.1852100430E+01      0.3886015875E+01
          0                 2           2             4    7     1      -0.3421305595E-02       4    7    1        -0.1852118694E+00      0.3886020900E+00
          0                 3           2             4    7     1       0.2329779641E-03       4    7    1         0.1296481917E-01      0.2720208890E-01
          0                 4           1             4    7     1      -0.9270412396E-05       4    7    1        -0.5302619275E-03      0.1112564051E-02

    ------------------------------------------------
       NWT REQUIRED            4 OUTER ITERATIONS 
       AND A TOTAL OF          7 INNER ITERATIONS.
    ------------------------------------------------

 NO OUTPUT CONTROL FOR STRESS PERIOD   24   TIME STEP   22
 
 SOLVING FOR HEAD 
                                                   Max.-Head-Change                         Max.-Flux-Residual
  Residual-Control   Outer-Iter.   Inner-Iter.     Column Row Layer    Maximum-Head-Change  Column Row Layer    Maximum-Flux-Residual          L2-NORM 
          0                 1           2             4    7     1       0.3470588096E-01       4    7    1         0.1827459945E+01      0.3841938347E+01
          0                 2           2             4    7     1      -0.3375962071E-02       4    7    1        -0.1827477740E+00      0.3841943050E+00
          0                 3           2             4    7     1       0.2298902451E-03       4    7    1         0.1279233287E-01      0.2689354568E-01
          0                 4           1             4    7     1      -0.9147549027E-05       4    7    1        -0.5232072244E-03      0.1099941790E-02

    ------------------------------------------------
       NWT REQUIRED            4 OUTER ITERATIONS 
       AND A TOTAL OF          7 INNER ITERATIONS.
    ------------------------------------------------

 NO OUTPUT CONTROL FOR STRESS PERIOD   24   TIME STEP   23
 
 SOLVING FOR HEAD 
                                                   Max.-Head-Change                         Max.-Flux-Residual
  Residual-Control   Outer-Iter.   Inner-Iter.     Column Row Layer    Maximum-Head-Change  Column Row Layer    Maximum-Flux-Residual          L2-NORM 
          0                 1           2             4    7     1       0.3424771707E-01       4    7    1         0.1803240181E+01      0.3798678085E+01
          0                 2           2             4    7     1      -0.3331394547E-02       4    7    1        -0.1803257519E+00      0.3798682376E+00
          0                 3           2             4    7     1       0.2268553686E-03       4    7    1         0.1262279168E-01      0.2659072362E-01
          0                 4           1             4    7     1      -0.9026788694E-05       4    7    1        -0.5162729828E-03      0.1087561049E-02

    ------------------------------------------------
       NWT REQUIRED            4 OUTER ITERATIONS 
       AND A TOTAL OF          7 INNER ITERATIONS.
    ------------------------------------------------

 NO OUTPUT CONTROL FOR STRESS PERIOD   24   TIME STEP   24
 
 SOLVING FOR HEAD 
                                                   Max.-Head-Change                         Max.-Flux-Residual
  Residual-Control   Outer-Iter.   Inner-Iter.     Column Row Layer    Maximum-Head-Change  Column Row Layer    Maximum-Flux-Residual          L2-NORM 
          0                 1           2             4    7     1       0.3379738386E-01       4    7    1         0.1779434027E+01      0.3756197549E+01
          0                 2           2             4    7     1      -0.3287588752E-02       4    7    1        -0.1779450919E+00      0.3756201614E+00
          0                 3           2             4    7     1       0.2238723625E-03       4    7    1         0.1245614583E-01      0.2629336235E-01
          0                 4           1             4    7     1      -0.8908092022E-05       4    7    1        -0.5094571445E-03      0.1075381793E-02

    ------------------------------------------------
       NWT REQUIRED            4 OUTER ITERATIONS 
       AND A TOTAL OF          7 INNER ITERATIONS.
    ------------------------------------------------

 NO OUTPUT CONTROL FOR STRESS PERIOD   24   TIME STEP   25
 
 SOLVING FOR HEAD 
                                                   Max.-Head-Change                         Max.-Flux-Residual
  Residual-Control   Outer-Iter.   Inner-Iter.     Column Row Layer    Maximum-Head-Change  Column Row Layer    Maximum-Flux-Residual          L2-NORM 
          0                 1           2             4    7     1       0.3335488067E-01       4    7    1         0.1756041160E+01      0.3714498201E+01
          0                 2           2             4    7     1      -0.3244544621E-02       4    7    1        -0.1756057620E+00      0.3714501901E+00
          0                 3           2             4    7     1       0.2209412233E-03       4    7    1         0.1229239308E-01      0.2600146332E-01
          0                 4           1             4    7     1      -0.8791459244E-05       4    7    1        -0.5027596540E-03      0.1063458469E-02

    ------------------------------------------------
       NWT REQUIRED            4 OUTER ITERATIONS 
       AND A TOTAL OF          7 INNER ITERATIONS.
    ------------------------------------------------

 NO OUTPUT CONTROL FOR STRESS PERIOD   24   TIME STEP   26
 
 SOLVING FOR HEAD 
                                                   Max.-Head-Change                         Max.-Flux-Residual
  Residual-Control   Outer-Iter.   Inner-Iter.     Column Row Layer    Maximum-Head-Change  Column Row Layer    Maximum-Flux-Residual          L2-NORM 
          0                 1           2             4    7     1       0.3291979053E-01       4    7    1         0.1733039693E+01      0.3673544294E+01
          0                 2           2             4    7     1      -0.3202221593E-02       4    7    1        -0.1733055730E+00      0.3673547675E+00
          0                 3           2             4    7     1       0.2180591876E-03       4    7    1         0.1213138017E-01      0.2571477921E-01
          0                 4           1             4    7     1      -0.8676779950E-05       4    7    1        -0.4961742090E-03      0.1061313001E-02

    ------------------------------------------------
       NWT REQUIRED            4 OUTER ITERATIONS 
       AND A TOTAL OF          7 INNER ITERATIONS.
    ------------------------------------------------

 NO OUTPUT CONTROL FOR STRESS PERIOD   24   TIME STEP   27
 
 SOLVING FOR HEAD 
                                                   Max.-Head-Change                         Max.-Flux-Residual
  Residual-Control   Outer-Iter.   Inner-Iter.     Column Row Layer    Maximum-Head-Change  Column Row Layer    Maximum-Flux-Residual          L2-NORM 
          0                 1           2             4    7     1       0.3249238567E-01       4    7    1         0.1710444433E+01      0.3633330189E+01
          0                 2           2             4    7     1      -0.3160646133E-02       4    7    1        -0.1710460059E+00      0.3633202171E+00
          0                 3           2             4    7     1       0.2152280589E-03       4    7    1         0.1197321079E-01      0.2543235117E-01
          0                 4           1             4    7     1      -0.8564126672E-05       4    7    1        -0.4897050685E-03      0.1040178449E-02

    ------------------------------------------------
       NWT REQUIRED            4 OUTER ITERATIONS 
       AND A TOTAL OF          7 INNER ITERATIONS.
    ------------------------------------------------

 NO OUTPUT CONTROL FOR STRESS PERIOD   24   TIME STEP   28
 
 SOLVING FOR HEAD 
                                                   Max.-Head-Change                         Max.-Flux-Residual
  Residual-Control   Outer-Iter.   Inner-Iter.     Column Row Layer    Maximum-Head-Change  Column Row Layer    Maximum-Flux-Residual          L2-NORM 
          0                 1           2             4    7     1       0.3207224649E-01       4    7    1         0.1688233068E+01      0.3593839803E+01
          0                 2           2             4    7     1      -0.3119777477E-02       4    7    1        -0.1688248293E+00      0.3593842457E+00
          0                 3           2             4    7     1       0.2124450609E-03       4    7    1         0.1181772875E-01      0.2515683106E-01
          0                 4           1             4    7     1      -0.8453389003E-05       4    7    1        -0.4833458436E-03      0.1028911556E-02

    ------------------------------------------------
       NWT REQUIRED            4 OUTER ITERATIONS 
       AND A TOTAL OF          7 INNER ITERATIONS.
    ------------------------------------------------

 NO OUTPUT CONTROL FOR STRESS PERIOD   24   TIME STEP   29
 
 SOLVING FOR HEAD 
                                                   Max.-Head-Change                         Max.-Flux-Residual
  Residual-Control   Outer-Iter.   Inner-Iter.     Column Row Layer    Maximum-Head-Change  Column Row Layer    Maximum-Flux-Residual          L2-NORM 
          0                 1           2             4    7     1       0.3165923987E-01       4    7    1         0.1666398410E+01      0.3555057401E+01
          0                 2           2             4    7     1      -0.3079602622E-02       4    7    1        -0.1666413245E+00      0.3555059823E+00
          0                 3           2             4    7     1       0.2097093079E-03       4    7    1         0.1166488373E-01      0.2488535450E-01
          0                 4           1             4    7     1      -0.8344530676E-05       4    7    1        -0.4770944713E-03      0.1017807307E-02

    ------------------------------------------------
       NWT REQUIRED            4 OUTER ITERATIONS 
       AND A TOTAL OF          7 INNER ITERATIONS.
    ------------------------------------------------

 NO OUTPUT CONTROL FOR STRESS PERIOD   24   TIME STEP   30



 STREAM LISTING     PERIOD     24   STEP       30

 LAYER ROW COL. STREAM  RCH.  FLOW INTO     FLOW TO   FLOW OUT OF   OVRLND.     DIRECT     STREAM       STREAM     STREAM     STREAM   STREAMBED  STREAMBED
                SEG.NO.  NO.  STRM. RCH.    AQUIFER    STRM. RCH.    RUNOFF     PRECIP       ET          HEAD       DEPTH      WIDTH   CONDCTNC.   GRADIENT

   1    1    1     1     1    7.8751E+00  1.2805E-01   7.7471E+00  0.000E+00  0.000E+00  0.000E+00  1.09388E+03  8.295E-01  7.430E+00  3.344E-02  1.276E+00
   1    2    2     1     2    7.7471E+00  1.9663E-01   7.5504E+00  0.000E+00  0.000E+00  0.000E+00  1.08888E+03  8.238E-01  7.346E+00  5.142E-02  1.275E+00
   1    3    3     1     3    7.5504E+00  1.6607E-01   7.3844E+00  0.000E+00  0.000E+00  0.000E+00  1.08324E+03  8.173E-01  7.251E+00  4.350E-02  1.272E+00
   1    3    4     1     4    7.3844E+00  1.5159E-01   7.2328E+00  0.000E+00  0.000E+00  0.000E+00  1.07822E+03  8.115E-01  7.166E+00  3.977E-02  1.270E+00
   1    4    5     2     1    5.2328E+00  2.7028E-01   4.9625E+00  0.000E+00  0.000E+00  0.000E+00  1.07240E+03  4.651E-01  1.200E+01  7.800E-02  1.155E+00
   1    5    6     2     2    4.9625E+00  2.0712E-01   4.7554E+00  0.000E+00  0.000E+00  0.000E+00  1.06696E+03  4.519E-01  1.200E+01  6.000E-02  1.151E+00
   1    6    6     2     3    4.7554E+00  2.0642E-01   4.5490E+00  0.000E+00  0.000E+00  0.000E+00  1.06223E+03  4.403E-01  1.200E+01  6.000E-02  1.147E+00
   1    7    6     2     4    4.5490E+00  2.0571E-01   4.3433E+00  0.000E+00  0.000E+00  0.000E+00  1.05750E+03  4.285E-01  1.200E+01  6.000E-02  1.143E+00
   1    8    6     2     5    4.3433E+00  2.0499E-01   4.1383E+00  0.000E+00  0.000E+00  0.000E+00  1.05278E+03  4.165E-01  1.200E+01  6.000E-02  1.139E+00
   1    3    5     3     1    2.0000E+00  2.8252E-01   1.7175E+00  0.000E+00  0.000E+00  0.000E+00  1.07555E+03  1.909E+00  9.636E+00  7.227E-02  1.955E+00
   1    3    6     3     2    1.7175E+00  2.4905E-01   1.4684E+00  0.000E+00  0.000E+00  0.000E+00  1.07264E+03  1.727E+00  8.909E+00  6.682E-02  1.864E+00
   1    3    7     3     3    1.4684E+00  1.9718E-01   1.2712E+00  0.000E+00  0.000E+00  0.000E+00  1.06987E+03  1.555E+00  8.218E+00  5.547E-02  1.777E+00
   1    4    8     3     4    1.2712E+00  2.2567E-01   1.0456E+00  0.000E+00  0.000E+00  0.000E+00  1.06682E+03  1.364E+00  7.455E+00  6.709E-02  1.682E+00
   1    5    8     3     5    1.0456E+00  1.5790E-01   8.8768E-01  0.000E+00  0.000E+00  0.000E+00  1.06362E+03  1.164E+00  6.655E+00  4.991E-02  1.582E+00
   1    6    8     3     6    8.8768E-01  5.5980E-02   8.3170E-01  0.000E+00  0.000E+00  0.000E+00  1.06158E+03  1.036E+00  6.145E+00  1.844E-02  1.518E+00
   1    5   10     4     1    1.0000E+01  9.0919E-02   9.9091E+00  0.000E+00  0.000E+00  0.000E+00  1.07836E+03  6.368E-01  1.000E+01  2.500E-02  1.212E+00
   1    5    9     4     2    9.9091E+00  1.8158E-01   9.7275E+00  0.000E+00  0.000E+00  0.000E+00  1.07154E+03  6.315E-01  1.000E+01  5.000E-02  1.211E+00
   1    6    8     4     3    9.7275E+00  1.2689E-01   9.6006E+00  0.000E+00  0.000E+00  0.000E+00  1.06381E+03  6.256E-01  1.000E+01  3.500E-02  1.209E+00
   1    6    8     5     1    1.0432E+01  2.2686E-01   1.0205E+01  0.000E+00  0.000E+00  0.000E+00  1.05868E+03  6.790E-01  1.542E+01  6.166E-02  1.226E+00
   1    7    7     5     2    1.0205E+01  2.7894E-01   9.9265E+00  0.000E+00  0.000E+00  0.000E+00  1.05417E+03  6.732E-01  1.519E+01  7.594E-02  1.224E+00
   1    8    7     5     3    9.9265E+00  1.9221E-01   9.7343E+00  0.000E+00  0.000E+00  0.000E+00  1.04992E+03  6.676E-01  1.497E+01  5.241E-02  1.223E+00
   1    8    6     5     4    9.7343E+00  1.3577E-01   9.5985E+00  0.000E+00  0.000E+00  0.000E+00  1.04691E+03  6.637E-01  1.482E+01  3.706E-02  1.221E+00
   1    9    6     6     1    1.3737E+01  2.3089E-01   1.3506E+01  0.000E+00  0.000E+00  0.000E+00  1.04358E+03  8.482E-01  1.200E+01  6.000E-02  1.283E+00
   1   10    7     6     2    1.3506E+01  2.3037E-01   1.3276E+01  0.000E+00  0.000E+00  0.000E+00  1.03902E+03  8.396E-01  1.200E+01  6.000E-02  1.280E+00
   1   11    7     6     3    1.3276E+01  2.2985E-01   1.3046E+01  0.000E+00  0.000E+00  0.000E+00  1.03447E+03  8.309E-01  1.200E+01  6.000E-02  1.277E+00
   1   12    7     6     4    1.3046E+01  2.2933E-01   1.2816E+01  0.000E+00  0.000E+00  0.000E+00  1.02991E+03  8.221E-01  1.200E+01  6.000E-02  1.274E+00
   1   13    7     6     5    1.2816E+01  9.7717E-04   1.2815E+01  0.000E+00  0.000E+00  0.000E+00  1.02673E+03  8.177E-01  1.200E+01  2.400E-02  1.357E-02
   1   14    9     7     1    1.5000E+02  1.3770E+00   1.4862E+02  0.000E+00  0.000E+00  0.000E+00  1.03987E+03  2.288E+00  5.529E+01  5.593E-01  8.207E-01
   1   13    8     7     2    1.4862E+02  1.9596E+00   1.4666E+02  0.000E+00  0.000E+00  0.000E+00  1.03478E+03  2.279E+00  5.525E+01  6.147E-01  1.063E+00
   1   13    7     7     3    1.4666E+02  1.6764E+00   1.4499E+02  0.000E+00  0.000E+00  0.000E+00  1.02969E+03  2.269E+00  5.521E+01  5.584E-01  1.001E+00
   1   13    6     8     1    1.5780E+02  1.0603E+00   1.5674E+02  0.000E+00  0.000E+00  0.000E+00  1.02474E+03  2.867E+00  4.158E+01  4.237E-01  8.342E-01
   1   13    5     8     2    1.5674E+02  3.1825E-01   1.5642E+02  0.000E+00  0.000E+00  0.000E+00  1.01849E+03  2.863E+00  4.151E+01  4.230E-01  2.508E-01
   1   13    4     8     3    1.5642E+02 -1.9255E+00   1.5835E+02  0.000E+00  0.000E+00  0.000E+00  1.01224E+03  2.868E+00  4.159E+01  4.238E+00 -1.515E-01
   1   13    3     8     4    1.5835E+02 -3.4017E+00   1.6175E+02  0.000E+00  0.000E+00  0.000E+00  1.00601E+03  2.886E+00  4.185E+01  4.265E+00 -2.659E-01
   1   13    2     8     5    1.6175E+02 -2.5196E+00   1.6427E+02  0.000E+00  0.000E+00  0.000E+00  9.99781E+02  2.906E+00  4.214E+01  4.294E+00 -1.956E-01
   1   13    1     8     6    1.6427E+02 -1.9644E+00   1.6624E+02  0.000E+00  0.000E+00  0.000E+00  9.94796E+02  2.921E+00  4.235E+01  2.590E+00 -2.529E-01
   1    8    6     9     1    0.0000E+00  0.0000E+00   0.0000E+00  0.000E+00  0.000E+00  0.000E+00  1.07875E+03  0.000E+00  4.000E+00  0.000E+00  1.000E+00
   1    8    5     9     2    0.0000E+00  0.0000E+00   0.0000E+00  0.000E+00  0.000E+00  0.000E+00  1.07825E+03  0.000E+00  4.000E+00  0.000E+00  1.000E+00





UNSATURATED ZONE PACKAGE VOLUMETRIC BUDGET FOR  TIME STEP    30 STRESS PERIOD   24
  ------------------------------------------------------------------------------



     CUMULATIVE VOLUMES      L**3       RATES FOR THIS TIME STEP      L**3/T
     ------------------                 ------------------------

           IN:                                      IN:
           ---                                      ---
        INFILTRATION =  1034458076.4042          INFILTRATION =           0.8475

          OUT:                                     OUT:
          ----                                     ----
              UZF ET =   859365928.0612                UZF ET =           0.7500
        UZF RECHARGE =       73224.0000          UZF RECHARGE =       0.0000E+00

            IN - OUT =   175018924.3430              IN - OUT =       9.7500E-02

          STORAGE:                                 STORAGE:
          --------                                 --------
      STORAGE CHANGE =   175019400.7771        STORAGE CHANGE =       9.7500E-02

 PERCENT DISCREPANCY IS DIFFERENCE BETWEEN IN-OUT MINUS CHANGE IN STORAGE
 DIVIDED BY THE AVERAGE OF IN AND OUT TIMES 100

 PERCENT DISCREPANCY =          -0.00     PERCENT DISCREPANCY =           0.00






1
  VOLUMETRIC BUDGET FOR AGRICULTURAL FIELDS AT  END OF TIME STEP   30, STRESS PERIOD  24
  ------------------------------------------------------------------------------

     CUMULATIVE VOLUMES      L**3       RATES FOR THIS TIME STEP      L**3/T
     ------------------                 ------------------------

           IN:                                      IN:
           ---                                      ---
               AG WELLS  =   665535360.0000                 AG WELLS  =           0.0000
      DIVERSION SEGMENTS =   317583232.0000        DIVERSION SEGMENTS =           0.0000
           GW IRRIGATION =           0.0000             GW IRRIGATION =           0.0000
           SW IRRIGATION =           0.0000             SW IRRIGATION =           0.0000
        SYSTEM LOSSES GW =           0.0000          SYSTEM LOSSES GW =           0.0000
        SYSTEM LOSSES SW =           0.0000          SYSTEM LOSSES SW =           0.0000

                TOTAL IN =   983118592.0000                  TOTAL IN =           0.0000

          OUT:                                     OUT:
          ----                                     ----
               AG WELLS  =           0.0000                 AG WELLS  =           0.0000
      DIVERSION SEGMENTS =           0.0000        DIVERSION SEGMENTS =           0.0000
           GW IRRIGATION =   665535360.0000             GW IRRIGATION =           0.0000
           SW IRRIGATION =   317589344.0000             SW IRRIGATION =           0.0000
        SYSTEM LOSSES GW =           0.0000          SYSTEM LOSSES GW =           0.0000
        SYSTEM LOSSES SW =           0.0000          SYSTEM LOSSES SW =           0.0000

               TOTAL OUT =   983124736.0000                 TOTAL OUT =           0.0000

                IN - OUT =       -6144.0000                  IN - OUT =           0.0000

     PERCENT DISCREPANCY =          -0.00         PERCENT DISCREPANCY =           0.00



1
  VOLUMETRIC BUDGET FOR ENTIRE MODEL AT END OF TIME STEP   30, STRESS PERIOD  24
  ------------------------------------------------------------------------------

     CUMULATIVE VOLUMES      L**3       RATES FOR THIS TIME STEP      L**3/T
     ------------------                 ------------------------

           IN:                                      IN:
           ---                                      ---
             STORAGE     =   950191744.0000               STORAGE     =           8.9495
       CONSTANT HEAD     =           0.0000         CONSTANT HEAD     =           0.0000
     HEAD DEP BOUNDS     =    17451442.0000       HEAD DEP BOUNDS     =           0.2886
      STREAM LEAKAGE     =   712234240.0000        STREAM LEAKAGE     =          11.4512
        UZF RECHARGE     =       73223.9531          UZF RECHARGE     =           0.0000
               GW ET     =           0.0000                 GW ET     =           0.0000
     SURFACE LEAKAGE     =           0.0000       SURFACE LEAKAGE     =           0.0000
           AG WELLS      =           0.0000             AG WELLS      =           0.0000

                TOTAL IN =  1679950592.0000                  TOTAL IN =          20.6893

          OUT:                                     OUT:
          ----                                     ----
             STORAGE     =   380920544.0000               STORAGE     =          10.5910
       CONSTANT HEAD     =           0.0000         CONSTANT HEAD     =           0.0000
     HEAD DEP BOUNDS     =    17447988.0000       HEAD DEP BOUNDS     =           0.2871
      STREAM LEAKAGE     =   616054592.0000        STREAM LEAKAGE     =           9.8112
        UZF RECHARGE     =           0.0000          UZF RECHARGE     =           0.0000
               GW ET     =           0.0000                 GW ET     =           0.0000
     SURFACE LEAKAGE     =           0.0000       SURFACE LEAKAGE     =           0.0000
           AG WELLS      =   665535360.0000             AG WELLS      =           0.0000

               TOTAL OUT =  1679958528.0000                 TOTAL OUT =          20.6893

                IN - OUT =       -7936.0000                  IN - OUT =       1.1444E-05

     PERCENT DISCREPANCY =          -0.00         PERCENT DISCREPANCY =           0.00






         TIME SUMMARY AT END OF TIME STEP   30 IN STRESS PERIOD   24
                    SECONDS     MINUTES      HOURS       DAYS        YEARS
                    -----------------------------------------------------------
   TIME STEP LENGTH  87667.      1461.1      24.352      1.0147     2.77799E-03
 STRESS PERIOD TIME 2.63000E+06  43833.      730.56      30.440     8.33397E-02
         TOTAL TIME 6.05767E+07 1.00961E+06  16827.      701.12      1.9196    
1
1
                            STRESS PERIOD NO.   25, LENGTH =   2630000.    
                            -----------------------------------------------

                              NUMBER OF TIME STEPS =    30

                               MULTIPLIER FOR DELT =     1.000

                            INITIAL TIME STEP SIZE =   87666.66    

 REUSING NON-PARAMETER GHB CELLS FROM LAST STRESS PERIOD

      2 GHB CELLS

 REUSING STREAM SEGMENT DATA FROM LAST STRESS PERIOD



            AREAL INFILTRATION RATE
 READING ON UNIT   19 WITH FORMAT: (FREE)              

            1           2           3           4           5           6           7           8           9          10
 ........................................................................................................................
   1   1.0000E-10  2.0000E-10   0.000       0.000       0.000       0.000       0.000       0.000       0.000       0.000    
   2   2.0000E-10  1.0000E-10  2.0000E-10   0.000       0.000      8.0000E-10  8.0000E-10  5.0000E-10   0.000       0.000    
   3    0.000      5.0000E-10  1.0000E-10  1.0000E-10  8.0000E-10  8.0000E-10  5.0000E-10  5.0000E-10   0.000       0.000    
   4   8.0000E-10  5.0000E-10  1.0000E-10  1.0000E-10  1.0000E-10  1.0000E-10  1.0000E-10  1.0000E-10  2.0000E-10   0.000    
   5   8.0000E-10  5.0000E-10  1.0000E-10  1.0000E-10  1.0000E-10  1.0000E-10  1.0000E-10  1.0000E-10  1.0000E-10  1.0000E-10
   6   8.0000E-10  5.0000E-10  5.0000E-10  2.0000E-10  2.0000E-10  1.0000E-10  1.0000E-10  1.0000E-10  1.0000E-10  5.0000E-10
   7   8.0000E-10  5.0000E-10  5.0000E-10  2.0000E-10  2.0000E-10  1.0000E-10  1.0000E-10  2.0000E-10  2.0000E-10   0.000    
   8    0.000      5.0000E-10  5.0000E-10  2.0000E-10  2.0000E-10  1.0000E-10  1.0000E-10  2.0000E-10  5.0000E-10   0.000    
   9    0.000      5.0000E-10  5.0000E-10  2.0000E-10  2.0000E-10  1.0000E-10  1.0000E-10  2.0000E-10  5.0000E-10   0.000    
  10    0.000      5.0000E-10  5.0000E-10  2.0000E-10  2.0000E-10  1.0000E-10  1.0000E-10  2.0000E-10  5.0000E-10  8.0000E-10
  11    0.000      1.0000E-10  1.0000E-10  1.0000E-10  1.0000E-10  1.0000E-10  1.0000E-10  2.0000E-10  5.0000E-10   0.000    
  12   1.0000E-10  1.0000E-10  1.0000E-10  1.0000E-10  1.0000E-10  1.0000E-10  1.0000E-10  1.0000E-10  2.0000E-10   0.000    
  13   1.0000E-10  1.0000E-10  2.0000E-10  2.0000E-10  2.0000E-10  2.0000E-10  2.0000E-10  1.0000E-10  1.0000E-10   0.000    
  14    0.000      2.0000E-10  5.0000E-10  5.0000E-10  5.0000E-10  5.0000E-10  5.0000E-10  2.0000E-10  1.0000E-10   0.000    
  15    0.000       0.000      8.0000E-10  8.0000E-10  8.0000E-10  8.0000E-10   0.000       0.000       0.000       0.000    

                  ET RATE =  5.000000E-10

 USING ET EXTINCTION DEPTH FROM PREVIOUS STRESS PERIOD. CURRENT PERIOD IS:      25

 USING EXTINCTION WATER CONTENT FROM PREVIOUS STRESS PERIOD. CURRENT PERIOD IS:      25

 USING AIR ENTRY PRESSURE FROM PREVIOUS STRESS PERIOD. CURRENT PERIOD IS:      25

 USING ROOT PRESSURE HEAD FROM PREVIOUS STRESS PERIOD. CURRENT PERIOD IS:      25

 USING ROOT ACTIVITY FROM PREVIOUS STRESS PERIOD. CURRENT PERIOD IS:      25

 PROCESSING AG STRESS PERIOD DATA

 READING AG STRESS PERIOD DATA

 READING IRRIGATION SEGMENT

 READING IRRIGATION WELL

 READING SUPPLEMENTAL WELL

 END PROCESSING AG STRESS PERIOD DATA OPTIONS
 
 SOLVING FOR HEAD 
                                                   Max.-Head-Change                         Max.-Flux-Residual
  Residual-Control   Outer-Iter.   Inner-Iter.     Column Row Layer    Maximum-Head-Change  Column Row Layer    Maximum-Flux-Residual          L2-NORM 
          0                 1           2             4    7     1       0.3125349524E-01       4    7    1         0.1644948136E+01      0.3517614191E+01
          0                 2           2             4    7     1      -0.3040134174E-02       4    7    1        -0.1644962591E+00      0.3517611020E+00
          0                 3           2             4    7     1       0.2070216582E-03       4    7    1         0.1151472943E-01      0.2462317757E-01
          0                 4           1             4    7     1      -0.8237586575E-05       4    7    1        -0.4709531549E-03      0.1007090725E-02

    ------------------------------------------------
       NWT REQUIRED            4 OUTER ITERATIONS 
       AND A TOTAL OF          7 INNER ITERATIONS.
    ------------------------------------------------

 NO OUTPUT CONTROL FOR STRESS PERIOD   25   TIME STEP    1
 
 SOLVING FOR HEAD 
                                                   Max.-Head-Change                         Max.-Flux-Residual
  Residual-Control   Outer-Iter.   Inner-Iter.     Column Row Layer    Maximum-Head-Change  Column Row Layer    Maximum-Flux-Residual          L2-NORM 
          0                 1           2             4    7     1       0.3085459646E-01       4    7    1         0.1623859805E+01      0.3480406726E+01
          0                 2           2             4    7     1      -0.3000812175E-02       4    7    1        -0.1623873891E+00      0.3352466276E+00
          0                 3           2             4    7     1       0.2043045386E-03       4    7    1         0.1136710865E-01      0.2349583090E-01
          0                 4           1             4    7     1      -0.8131721221E-05       4    7    1        -0.4649154616E-03      0.9634157111E-03

    ------------------------------------------------
       NWT REQUIRED            4 OUTER ITERATIONS 
       AND A TOTAL OF          7 INNER ITERATIONS.
    ------------------------------------------------

 NO OUTPUT CONTROL FOR STRESS PERIOD   25   TIME STEP    2
 
 SOLVING FOR HEAD 
                                                   Max.-Head-Change                         Max.-Flux-Residual
  Residual-Control   Outer-Iter.   Inner-Iter.     Column Row Layer    Maximum-Head-Change  Column Row Layer    Maximum-Flux-Residual          L2-NORM 
          0                 1           2             4    7     1       0.3046359146E-01       4    7    1         0.1603166396E+01      0.3443574751E+01
          0                 2           2             4    7     1      -0.2962208054E-02       4    7    1        -0.1603180111E+00      0.3322682734E+00
          0                 3           2             4    7     1       0.2017493745E-03       4    7    1         0.1122225233E-01      0.2312896883E-01
          0                 4           1             4    7     1      -0.8026723698E-05       4    7    1        -0.4589908240E-03      0.9458493375E-03

    ------------------------------------------------
       NWT REQUIRED            4 OUTER ITERATIONS 
       AND A TOTAL OF          7 INNER ITERATIONS.
    ------------------------------------------------

 NO OUTPUT CONTROL FOR STRESS PERIOD   25   TIME STEP    3
 
 SOLVING FOR HEAD 
                                                   Max.-Head-Change                         Max.-Flux-Residual
  Residual-Control   Outer-Iter.   Inner-Iter.     Column Row Layer    Maximum-Head-Change  Column Row Layer    Maximum-Flux-Residual          L2-NORM 
          0                 1           2             4    7     1       0.3008087134E-01       4    7    1         0.1582884152E+01      0.3406994684E+01
          0                 2           2             4    7     1      -0.2924999367E-02       4    7    1        -0.1582897489E+00      0.3289567367E+00
          0                 3           2             4    7     1       0.1992149750E-03       4    7    1         0.1108027428E-01      0.2290022876E-01
          0                 4           1             4    7     1      -0.7925897248E-05       4    7    1        -0.4531839004E-03      0.9364961207E-03

    ------------------------------------------------
       NWT REQUIRED            4 OUTER ITERATIONS 
       AND A TOTAL OF          7 INNER ITERATIONS.
    ------------------------------------------------

 NO OUTPUT CONTROL FOR STRESS PERIOD   25   TIME STEP    4
 
 SOLVING FOR HEAD 
                                                   Max.-Head-Change                         Max.-Flux-Residual
  Residual-Control   Outer-Iter.   Inner-Iter.     Column Row Layer    Maximum-Head-Change  Column Row Layer    Maximum-Flux-Residual          L2-NORM 
          0                 1           2             4    7     1       0.2970544358E-01       4    7    1         0.1562995780E+01      0.3371074667E+01
          0                 2           2             4    7     1      -0.2888499068E-02       4    7    1        -0.1563008757E+00      0.3256872682E+00
          0                 3           2             4    7     1       0.1967288453E-03       4    7    1         0.1094105344E-01      0.2267426674E-01
          0                 4           1             4    7     1      -0.7826990781E-05       4    7    1        -0.4474897723E-03      0.9272643715E-03

    ------------------------------------------------
       NWT REQUIRED            4 OUTER ITERATIONS 
       AND A TOTAL OF          7 INNER ITERATIONS.
    ------------------------------------------------

 NO OUTPUT CONTROL FOR STRESS PERIOD   25   TIME STEP    5
 
 SOLVING FOR HEAD 
                                                   Max.-Head-Change                         Max.-Flux-Residual
  Residual-Control   Outer-Iter.   Inner-Iter.     Column Row Layer    Maximum-Head-Change  Column Row Layer    Maximum-Flux-Residual          L2-NORM 
          0                 1           2             4    7     1       0.2933702997E-01       4    7    1         0.1543485558E+01      0.3335790487E+01
          0                 2           2             4    7     1      -0.2852680174E-02       4    7    1        -0.1543498188E+00      0.3224599141E+00
          0                 3           2             4    7     1       0.1942891445E-03       4    7    1         0.1080447975E-01      0.2245108526E-01
          0                 4           1             4    7     1      -0.7729930731E-05       4    7    1        -0.4419038864E-03      0.9181401988E-03

    ------------------------------------------------
       NWT REQUIRED            4 OUTER ITERATIONS 
       AND A TOTAL OF          7 INNER ITERATIONS.
    ------------------------------------------------

 NO OUTPUT CONTROL FOR STRESS PERIOD   25   TIME STEP    6
 
 SOLVING FOR HEAD 
                                                   Max.-Head-Change                         Max.-Flux-Residual
  Residual-Control   Outer-Iter.   Inner-Iter.     Column Row Layer    Maximum-Head-Change  Column Row Layer    Maximum-Flux-Residual          L2-NORM 
          0                 1           2             4    7     1       0.2897550602E-01       4    7    1         0.1524346345E+01      0.3301128419E+01
          0                 2           2             4    7     1      -0.2817530639E-02       4    7    1        -0.1524358641E+00      0.3192751610E+00
          0                 3           2             4    7     1       0.1918950506E-03       4    7    1         0.1067050318E-01      0.2223071366E-01
          0                 4           1             4    7     1      -0.7634684516E-05       4    7    1        -0.4364242434E-03      0.9091266925E-03

    ------------------------------------------------
       NWT REQUIRED            4 OUTER ITERATIONS 
       AND A TOTAL OF          7 INNER ITERATIONS.
    ------------------------------------------------

 NO OUTPUT CONTROL FOR STRESS PERIOD   25   TIME STEP    7
 
 SOLVING FOR HEAD 
                                                   Max.-Head-Change                         Max.-Flux-Residual
  Residual-Control   Outer-Iter.   Inner-Iter.     Column Row Layer    Maximum-Head-Change  Column Row Layer    Maximum-Flux-Residual          L2-NORM 
          0                 1           2             4    7     1       0.2862062929E-01       4    7    1         0.1505564395E+01      0.3267071543E+01
          0                 2           2             4    7     1      -0.2783026930E-02       4    7    1        -0.1505576369E+00      0.3161242917E+00
          0                 3           2             4    7     1       0.1895449604E-03       4    7    1         0.1053902753E-01      0.2201257143E-01
          0                 4           1             4    7     1      -0.7541188931E-05       4    7    1        -0.4310468901E-03      0.9002104192E-03

    ------------------------------------------------
       NWT REQUIRED            4 OUTER ITERATIONS 
       AND A TOTAL OF          7 INNER ITERATIONS.
    ------------------------------------------------

 NO OUTPUT CONTROL FOR STRESS PERIOD   25   TIME STEP    8
 
 SOLVING FOR HEAD 
                                                   Max.-Head-Change                         Max.-Flux-Residual
  Residual-Control   Outer-Iter.   Inner-Iter.     Column Row Layer    Maximum-Head-Change  Column Row Layer    Maximum-Flux-Residual          L2-NORM 
          0                 1           2             4    7     1       0.2827203951E-01       4    7    1         0.1487119842E+01      0.3233601799E+01
          0                 2           2             4    7     1      -0.2749134085E-02       4    7    1        -0.1487131506E+00      0.3130336834E+00
          0                 3           2             4    7     1       0.1872364880E-03       4    7    1         0.1040991373E-01      0.2179851194E-01
          0                 4           1             4    7     1      -0.7449348190E-05       4    7    1        -0.4257661210E-03      0.8914641551E-03

    ------------------------------------------------
       NWT REQUIRED            4 OUTER ITERATIONS 
       AND A TOTAL OF          7 INNER ITERATIONS.
    ------------------------------------------------

 NO OUTPUT CONTROL FOR STRESS PERIOD   25   TIME STEP    9
 
 SOLVING FOR HEAD 
                                                   Max.-Head-Change                         Max.-Flux-Residual
  Residual-Control   Outer-Iter.   Inner-Iter.     Column Row Layer    Maximum-Head-Change  Column Row Layer    Maximum-Flux-Residual          L2-NORM 
          0                 1           2             4    7     1       0.2792966398E-01       4    7    1         0.1469008584E+01      0.3200709811E+01
          0                 2           2             4    7     1      -0.2715845058E-02       4    7    1        -0.1469019950E+00      0.3099772649E+00
          0                 3           2             4    7     1       0.1849691552E-03       4    7    1         0.1028313307E-01      0.2158673477E-01
          0                 4           1             4    7     1      -0.7359143989E-05       4    7    1        -0.4205807834E-03      0.8827952658E-03

    ------------------------------------------------
       NWT REQUIRED            4 OUTER ITERATIONS 
       AND A TOTAL OF          7 INNER ITERATIONS.
    ------------------------------------------------

 NO OUTPUT CONTROL FOR STRESS PERIOD   25   TIME STEP   10
 
 SOLVING FOR HEAD 
                                                   Max.-Head-Change                         Max.-Flux-Residual
  Residual-Control   Outer-Iter.   Inner-Iter.     Column Row Layer    Maximum-Head-Change  Column Row Layer    Maximum-Flux-Residual          L2-NORM 
          0                 1           2             4    7     1       0.2759331206E-01       4    7    1         0.1451219561E+01      0.3168377011E+01
          0                 2           2             4    7     1      -0.2683141354E-02       4    7    1        -0.1451230638E+00      0.3069631861E+00
          0                 3           2             4    7     1       0.1827417003E-03       4    7    1         0.1015860811E-01      0.2137781266E-01
          0                 4           1             4    7     1      -0.7270525785E-05       4    7    1        -0.4154877106E-03      0.8742735196E-03

    ------------------------------------------------
       NWT REQUIRED            4 OUTER ITERATIONS 
       AND A TOTAL OF          7 INNER ITERATIONS.
    ------------------------------------------------

 NO OUTPUT CONTROL FOR STRESS PERIOD   25   TIME STEP   11
 
 SOLVING FOR HEAD 
                                                   Max.-Head-Change                         Max.-Flux-Residual
  Residual-Control   Outer-Iter.   Inner-Iter.     Column Row Layer    Maximum-Head-Change  Column Row Layer    Maximum-Flux-Residual          L2-NORM 
          0                 1           2             4    7     1       0.2726279399E-01       4    7    1         0.1433742885E+01      0.3136574256E+01
          0                 2           2             4    7     1      -0.2651004559E-02       4    7    1        -0.1433753683E+00      0.3039896269E+00
          0                 3           2             4    7     1       0.1805528675E-03       4    7    1         0.1003626964E-01      0.2117162435E-01
          0                 4           1             4    7     1      -0.7183443728E-05       4    7    1        -0.4104840459E-03      0.8659510369E-03

    ------------------------------------------------
       NWT REQUIRED            4 OUTER ITERATIONS 
       AND A TOTAL OF          7 INNER ITERATIONS.
    ------------------------------------------------

 NO OUTPUT CONTROL FOR STRESS PERIOD   25   TIME STEP   12
 
 SOLVING FOR HEAD 
                                                   Max.-Head-Change                         Max.-Flux-Residual
  Residual-Control   Outer-Iter.   Inner-Iter.     Column Row Layer    Maximum-Head-Change  Column Row Layer    Maximum-Flux-Residual          L2-NORM 
          0                 1           2             4    7     1       0.2693794107E-01       4    7    1         0.1416568715E+01      0.3105299717E+01
          0                 2           2             4    7     1      -0.2619418303E-02       4    7    1        -0.1416579243E+00      0.3010575554E+00
          0                 3           2             4    7     1       0.1784015415E-03       4    7    1         0.9916048765E-02      0.2096824753E-01
          0                 4           1             4    7     1      -0.7097853841E-05       4    7    1        -0.4055670142E-03      0.8575757997E-03

    ------------------------------------------------
       NWT REQUIRED            4 OUTER ITERATIONS 
       AND A TOTAL OF          7 INNER ITERATIONS.
    ------------------------------------------------

 NO OUTPUT CONTROL FOR STRESS PERIOD   25   TIME STEP   13
 
 SOLVING FOR HEAD 
                                                   Max.-Head-Change                         Max.-Flux-Residual
  Residual-Control   Outer-Iter.   Inner-Iter.     Column Row Layer    Maximum-Head-Change  Column Row Layer    Maximum-Flux-Residual          L2-NORM 
          0                 1           2             4    7     1       0.2661872831E-01       4    7    1         0.1399695594E+01      0.3074542965E+01
          0                 2           2             4    7     1      -0.2588380199E-02       4    7    1        -0.1399705861E+00      0.2981671582E+00
          0                 3           2             4    7     1       0.1762875578E-03       4    7    1         0.9797935312E-02      0.2076771206E-01
          0                 4           1             4    7     1      -0.7013748984E-05       4    7    1        -0.4007361422E-03      0.8493221273E-03

    ------------------------------------------------
       NWT REQUIRED            4 OUTER ITERATIONS 
       AND A TOTAL OF          7 INNER ITERATIONS.
    ------------------------------------------------

 NO OUTPUT CONTROL FOR STRESS PERIOD   25   TIME STEP   14
 
 SOLVING FOR HEAD 
                                                   Max.-Head-Change                         Max.-Flux-Residual
  Residual-Control   Outer-Iter.   Inner-Iter.     Column Row Layer    Maximum-Head-Change  Column Row Layer    Maximum-Flux-Residual          L2-NORM 
          0                 1           2             4    7     1       0.2630472771E-01       4    7    1         0.1383100346E+01      0.3044281863E+01
          0                 2           2             4    7     1      -0.2557848632E-02       4    7    1        -0.1383110359E+00      0.2953165298E+00
          0                 3           2             4    7     1       0.1742080826E-03       4    7    1         0.9681766980E-02      0.2056983722E-01
          0                 4           1             4    7     1      -0.6931017484E-05       4    7    1        -0.3959848814E-03      0.8412286882E-03

    ------------------------------------------------
       NWT REQUIRED            4 OUTER ITERATIONS 
       AND A TOTAL OF          7 INNER ITERATIONS.
    ------------------------------------------------

 NO OUTPUT CONTROL FOR STRESS PERIOD   25   TIME STEP   15
 
 SOLVING FOR HEAD 
                                                   Max.-Head-Change                         Max.-Flux-Residual
  Residual-Control   Outer-Iter.   Inner-Iter.     Column Row Layer    Maximum-Head-Change  Column Row Layer    Maximum-Flux-Residual          L2-NORM 
          0                 1           2             4    7     1       0.2599607245E-01       4    7    1         0.1366789951E+01      0.3014509687E+01
          0                 2           2             4    7     1      -0.2527836598E-02       4    7    1        -0.1366799719E+00      0.2925061195E+00
          0                 3           2             4    7     1       0.1721639991E-03       4    7    1         0.9567592699E-02      0.2037473874E-01
          0                 4           1             4    7     1      -0.6849693420E-05       4    7    1        -0.3913151409E-03      0.8332519128E-03

    ------------------------------------------------
       NWT REQUIRED            4 OUTER ITERATIONS 
       AND A TOTAL OF          7 INNER ITERATIONS.
    ------------------------------------------------

 NO OUTPUT CONTROL FOR STRESS PERIOD   25   TIME STEP   16
 
 SOLVING FOR HEAD 
                                                   Max.-Head-Change                         Max.-Flux-Residual
  Residual-Control   Outer-Iter.   Inner-Iter.     Column Row Layer    Maximum-Head-Change  Column Row Layer    Maximum-Flux-Residual          L2-NORM 
          0                 1           2             4    7     1       0.2569248603E-01       4    7    1         0.1350749433E+01      0.2985216969E+01
          0                 2           2             4    7     1      -0.2498315250E-02       4    7    1        -0.1350758962E+00      0.2897792713E+00
          0                 3           2             4    7     1       0.1701536235E-03       4    7    1         0.9455307584E-02      0.2018432627E-01
          0                 4           1             4    7     1      -0.6769697813E-05       4    7    1        -0.3867226624E-03      0.8254647252E-03

    ------------------------------------------------
       NWT REQUIRED            4 OUTER ITERATIONS 
       AND A TOTAL OF          7 INNER ITERATIONS.
    ------------------------------------------------

 NO OUTPUT CONTROL FOR STRESS PERIOD   25   TIME STEP   17
 
 SOLVING FOR HEAD 
                                                   Max.-Head-Change                         Max.-Flux-Residual
  Residual-Control   Outer-Iter.   Inner-Iter.     Column Row Layer    Maximum-Head-Change  Column Row Layer    Maximum-Flux-Residual          L2-NORM 
          0                 1           2             4    7     1       0.2539398812E-01       4    7    1         0.1334979163E+01      0.2956428165E+01
          0                 2           2             4    7     1      -0.2469290918E-02       4    7    1        -0.1334988461E+00      0.2870086678E+00
          0                 3           2             4    7     1       0.1681766967E-03       4    7    1         0.9344914260E-02      0.1999265977E-01
          0                 4           1             4    7     1      -0.6691049083E-05       4    7    1        -0.3822075703E-03      0.8176289534E-03

    ------------------------------------------------
       NWT REQUIRED            4 OUTER ITERATIONS 
       AND A TOTAL OF          7 INNER ITERATIONS.
    ------------------------------------------------

 NO OUTPUT CONTROL FOR STRESS PERIOD   25   TIME STEP   18
 
 SOLVING FOR HEAD 
                                                   Max.-Head-Change                         Max.-Flux-Residual
  Residual-Control   Outer-Iter.   Inner-Iter.     Column Row Layer    Maximum-Head-Change  Column Row Layer    Maximum-Flux-Residual          L2-NORM 
          0                 1           2             4    7     1       0.2510031451E-01       4    7    1         0.1319465296E+01      0.2928135083E+01
          0                 2           2             4    7     1      -0.2440734575E-02       4    7    1        -0.1319474370E+00      0.2843123515E+00
          0                 3           2             4    7     1       0.1662317899E-03       4    7    1         0.9236315778E-02      0.1980526359E-01
          0                 4           1             4    7     1      -0.6613669520E-05       4    7    1        -0.3777658737E-03      0.8099748129E-03

    ------------------------------------------------
       NWT REQUIRED            4 OUTER ITERATIONS 
       AND A TOTAL OF          7 INNER ITERATIONS.
    ------------------------------------------------

 NO OUTPUT CONTROL FOR STRESS PERIOD   25   TIME STEP   19
 
 SOLVING FOR HEAD 
                                                   Max.-Head-Change                         Max.-Flux-Residual
  Residual-Control   Outer-Iter.   Inner-Iter.     Column Row Layer    Maximum-Head-Change  Column Row Layer    Maximum-Flux-Residual          L2-NORM 
          0                 1           2             4    7     1       0.2481148539E-01       4    7    1         0.1304208933E+01      0.2900287459E+01
          0                 2           2             4    7     1      -0.2412649182E-02       4    7    1        -0.1304217789E+00      0.2816552567E+00
          0                 3           2             4    7     1       0.1643189624E-03       4    7    1         0.9129519865E-02      0.1962056796E-01
          0                 4           1             4    7     1      -0.6537566492E-05       4    7    1        -0.3733979167E-03      0.8024165198E-03

    ------------------------------------------------
       NWT REQUIRED            4 OUTER ITERATIONS 
       AND A TOTAL OF          7 INNER ITERATIONS.
    ------------------------------------------------

 NO OUTPUT CONTROL FOR STRESS PERIOD   25   TIME STEP   20
 
 SOLVING FOR HEAD 
                                                   Max.-Head-Change                         Max.-Flux-Residual
  Residual-Control   Outer-Iter.   Inner-Iter.     Column Row Layer    Maximum-Head-Change  Column Row Layer    Maximum-Flux-Residual          L2-NORM 
          0                 1           2             4    7     1       0.2452725628E-01       4    7    1         0.1289196468E+01      0.2872868398E+01
          0                 2           2             4    7     1      -0.2385010989E-02       4    7    1        -0.1289205111E+00      0.2790364206E+00
          0                 3           2             4    7     1       0.1624365965E-03       4    7    1         0.9024431310E-02      0.1943850313E-01
          0                 4           1             4    7     1      -0.6462675298E-05       4    7    1        -0.3690997876E-03      0.7949708600E-03

    ------------------------------------------------
       NWT REQUIRED            4 OUTER ITERATIONS 
       AND A TOTAL OF          7 INNER ITERATIONS.
    ------------------------------------------------

 NO OUTPUT CONTROL FOR STRESS PERIOD   25   TIME STEP   21
 
 SOLVING FOR HEAD 
                                                   Max.-Head-Change                         Max.-Flux-Residual
  Residual-Control   Outer-Iter.   Inner-Iter.     Column Row Layer    Maximum-Head-Change  Column Row Layer    Maximum-Flux-Residual          L2-NORM 
          0                 1           2             4    7     1       0.2424779087E-01       4    7    1         0.1274437112E+01      0.2845880815E+01
          0                 2           2             4    7     1      -0.2357835924E-02       4    7    1        -0.1274445550E+00      0.2764562984E+00
          0                 3           2             4    7     1       0.1605857749E-03       4    7    1         0.8921114518E-02      0.1925911587E-01
          0                 4           1             4    7     1      -0.6389039109E-05       4    7    1        -0.3648741376E-03      0.7876337945E-03

    ------------------------------------------------
       NWT REQUIRED            4 OUTER ITERATIONS 
       AND A TOTAL OF          7 INNER ITERATIONS.
    ------------------------------------------------

 NO OUTPUT CONTROL FOR STRESS PERIOD   25   TIME STEP   22
 
 SOLVING FOR HEAD 
                                                   Max.-Head-Change                         Max.-Flux-Residual
  Residual-Control   Outer-Iter.   Inner-Iter.     Column Row Layer    Maximum-Head-Change  Column Row Layer    Maximum-Flux-Residual          L2-NORM 
          0                 1           2             4    7     1       0.2397270745E-01       4    7    1         0.1259910166E+01      0.2819304780E+01
          0                 2           2             4    7     1      -0.2331086920E-02       4    7    1        -0.1259918404E+00      0.2739130910E+00
          0                 3           2             4    7     1       0.1587639750E-03       4    7    1         0.8819424647E-02      0.1908226684E-01
          0                 4           1             4    7     1      -0.6316557189E-05       4    7    1        -0.3607150120E-03      0.7803965353E-03

    ------------------------------------------------
       NWT REQUIRED            4 OUTER ITERATIONS 
       AND A TOTAL OF          7 INNER ITERATIONS.
    ------------------------------------------------

 NO OUTPUT CONTROL FOR STRESS PERIOD   25   TIME STEP   23
 
 SOLVING FOR HEAD 
                                                   Max.-Head-Change                         Max.-Flux-Residual
  Residual-Control   Outer-Iter.   Inner-Iter.     Column Row Layer    Maximum-Head-Change  Column Row Layer    Maximum-Flux-Residual          L2-NORM 
          0                 1           2             4    7     1       0.2370204766E-01       4    7    1         0.1245617727E+01      0.2793139351E+01
          0                 2           2             4    7     1      -0.2304767942E-02       4    7    1        -0.1245625769E+00      0.2714071944E+00
          0                 3           2             4    7     1       0.1569714650E-03       4    7    1         0.8719376352E-02      0.1890801314E-01
          0                 4           1             4    7     1      -0.6245240476E-05       4    7    1        -0.3566230253E-03      0.7733738246E-03

    ------------------------------------------------
       NWT REQUIRED            4 OUTER ITERATIONS 
       AND A TOTAL OF          7 INNER ITERATIONS.
    ------------------------------------------------

 NO OUTPUT CONTROL FOR STRESS PERIOD   25   TIME STEP   24
 
 SOLVING FOR HEAD 
                                                   Max.-Head-Change                         Max.-Flux-Residual
  Residual-Control   Outer-Iter.   Inner-Iter.     Column Row Layer    Maximum-Head-Change  Column Row Layer    Maximum-Flux-Residual          L2-NORM 
          0                 1           2             4    7     1       0.2343571125E-01       4    7    1         0.1231554660E+01      0.2767365826E+01
          0                 2           2             4    7     1      -0.2278869292E-02       4    7    1        -0.1231562513E+00      0.2689366715E+00
          0                 3           2             4    7     1       0.1552075851E-03       4    7    1         0.8620933701E-02      0.1873617118E-01
          0                 4           1             4    7     1      -0.6175062951E-05       4    7    1        -0.3525967188E-03      0.7662487246E-03

    ------------------------------------------------
       NWT REQUIRED            4 OUTER ITERATIONS 
       AND A TOTAL OF          7 INNER ITERATIONS.
    ------------------------------------------------

 NO OUTPUT CONTROL FOR STRESS PERIOD   25   TIME STEP   25
 
 SOLVING FOR HEAD 
                                                   Max.-Head-Change                         Max.-Flux-Residual
  Residual-Control   Outer-Iter.   Inner-Iter.     Column Row Layer    Maximum-Head-Change  Column Row Layer    Maximum-Flux-Residual          L2-NORM 
          0                 1           2             4    7     1       0.2317360314E-01       4    7    1         0.1217715765E+01      0.2741986987E+01
          0                 2           2             4    7     1      -0.2253381730E-02       4    7    1        -0.1217723433E+00      0.2665021094E+00
          0                 3           2             4    7     1       0.1534717052E-03       4    7    1         0.8524060265E-02      0.1856683182E-01
          0                 4           1             4    7     1      -0.6105999400E-05       4    7    1        -0.3486345863E-03      0.7593298045E-03

    ------------------------------------------------
       NWT REQUIRED            4 OUTER ITERATIONS 
       AND A TOTAL OF          7 INNER ITERATIONS.
    ------------------------------------------------

 NO OUTPUT CONTROL FOR STRESS PERIOD   25   TIME STEP   26
 
 SOLVING FOR HEAD 
                                                   Max.-Head-Change                         Max.-Flux-Residual
  Residual-Control   Outer-Iter.   Inner-Iter.     Column Row Layer    Maximum-Head-Change  Column Row Layer    Maximum-Flux-Residual          L2-NORM 
          0                 1           2             4    7     1       0.2291563062E-01       4    7    1         0.1204096111E+01      0.2716986732E+01
          0                 2           2             4    7     1      -0.2228296261E-02       4    7    1        -0.1204103599E+00      0.2641022460E+00
          0                 3           2             4    7     1       0.1517632129E-03       4    7    1         0.8428721564E-02      0.1839988800E-01
          0                 4           1             4    7     1      -0.6038025071E-05       4    7    1        -0.3447352278E-03      0.7524961960E-03

    ------------------------------------------------
       NWT REQUIRED            4 OUTER ITERATIONS 
       AND A TOTAL OF          7 INNER ITERATIONS.
    ------------------------------------------------

 NO OUTPUT CONTROL FOR STRESS PERIOD   25   TIME STEP   27
 
 SOLVING FOR HEAD 
                                                   Max.-Head-Change                         Max.-Flux-Residual
  Residual-Control   Outer-Iter.   Inner-Iter.     Column Row Layer    Maximum-Head-Change  Column Row Layer    Maximum-Flux-Residual          L2-NORM 
          0                 1           2             4    7     1       0.2266183882E-01       4    7    1         0.1190698190E+01      0.2692366844E+01
          0                 2           2             4    7     1      -0.2203617272E-02       4    7    1        -0.1190705504E+00      0.2617373177E+00
          0                 3           2             4    7     1       0.1500824063E-03       4    7    1         0.8334935015E-02      0.1823536343E-01
          0                 4           1             4    7     1      -0.5971152744E-05       4    7    1        -0.3408993548E-03      0.7457687140E-03

    ------------------------------------------------
       NWT REQUIRED            4 OUTER ITERATIONS 
       AND A TOTAL OF          7 INNER ITERATIONS.
    ------------------------------------------------

 NO OUTPUT CONTROL FOR STRESS PERIOD   25   TIME STEP   28
 
 SOLVING FOR HEAD 
                                                   Max.-Head-Change                         Max.-Flux-Residual
  Residual-Control   Outer-Iter.   Inner-Iter.     Column Row Layer    Maximum-Head-Change  Column Row Layer    Maximum-Flux-Residual          L2-NORM 
          0                 1           2             4    7     1       0.2241187303E-01       4    7    1         0.1177502444E+01      0.2668114712E+01
          0                 2           2             4    7     1      -0.2179310278E-02       4    7    1        -0.1177509588E+00      0.2594064131E+00
          0                 3           2             4    7     1       0.1484269367E-03       4    7    1         0.8242563737E-02      0.1807320456E-01
          0                 4           1             4    7     1      -0.5905287899E-05       4    7    1        -0.3371213541E-03      0.7391617799E-03

    ------------------------------------------------
       NWT REQUIRED            4 OUTER ITERATIONS 
       AND A TOTAL OF          7 INNER ITERATIONS.
    ------------------------------------------------

 NO OUTPUT CONTROL FOR STRESS PERIOD   25   TIME STEP   29
 
 SOLVING FOR HEAD 
                                                   Max.-Head-Change                         Max.-Flux-Residual
  Residual-Control   Outer-Iter.   Inner-Iter.     Column Row Layer    Maximum-Head-Change  Column Row Layer    Maximum-Flux-Residual          L2-NORM 
          0                 1           2             4    7     1       0.2216591608E-01       4    7    1         0.1164519678E+01      0.2644278095E+01
          0                 2           2             4    7     1      -0.2155393074E-02       4    7    1        -0.1164526656E+00      0.2571138607E+00
          0                 3           2             4    7     1       0.1467980158E-03       4    7    1         0.8151683346E-02      0.1791420824E-01
          0                 4           1             4    7     1      -0.5840479349E-05       4    7    1        -0.3334043447E-03      0.7326834198E-03

    ------------------------------------------------
       NWT REQUIRED            4 OUTER ITERATIONS 
       AND A TOTAL OF          7 INNER ITERATIONS.
    ------------------------------------------------

 NO OUTPUT CONTROL FOR STRESS PERIOD   25   TIME STEP   30



 STREAM LISTING     PERIOD     25   STEP       30

 LAYER ROW COL. STREAM  RCH.  FLOW INTO     FLOW TO   FLOW OUT OF   OVRLND.     DIRECT     STREAM       STREAM     STREAM     STREAM   STREAMBED  STREAMBED
                SEG.NO.  NO.  STRM. RCH.    AQUIFER    STRM. RCH.    RUNOFF     PRECIP       ET          HEAD       DEPTH      WIDTH   CONDCTNC.   GRADIENT

   1    1    1     1     1    7.4712E+00  1.2395E-01   7.3473E+00  0.000E+00  0.000E+00  0.000E+00  1.09386E+03  8.152E-01  7.220E+00  3.249E-02  1.272E+00
   1    2    2     1     2    7.3473E+00  1.9029E-01   7.1570E+00  0.000E+00  0.000E+00  0.000E+00  1.08887E+03  8.094E-01  7.136E+00  4.995E-02  1.270E+00
   1    3    3     1     3    7.1570E+00  1.6067E-01   6.9963E+00  0.000E+00  0.000E+00  0.000E+00  1.08322E+03  8.029E-01  7.042E+00  4.225E-02  1.268E+00
   1    3    4     1     4    6.9963E+00  1.4674E-01   6.8496E+00  0.000E+00  0.000E+00  0.000E+00  1.07821E+03  7.979E-01  6.962E+00  3.864E-02  1.266E+00
   1    4    5     2     1    4.8496E+00  2.6862E-01   4.5810E+00  0.000E+00  0.000E+00  0.000E+00  1.07238E+03  4.439E-01  1.200E+01  7.800E-02  1.148E+00
   1    5    6     2     2    4.5810E+00  2.0582E-01   4.3752E+00  0.000E+00  0.000E+00  0.000E+00  1.06694E+03  4.303E-01  1.200E+01  6.000E-02  1.143E+00
   1    6    6     2     3    4.3752E+00  2.0510E-01   4.1701E+00  0.000E+00  0.000E+00  0.000E+00  1.06221E+03  4.184E-01  1.200E+01  6.000E-02  1.139E+00
   1    7    6     2     4    4.1701E+00  2.0437E-01   3.9657E+00  0.000E+00  0.000E+00  0.000E+00  1.05748E+03  4.062E-01  1.200E+01  6.000E-02  1.135E+00
   1    8    6     2     5    3.9657E+00  2.0363E-01   3.7620E+00  0.000E+00  0.000E+00  0.000E+00  1.05275E+03  3.939E-01  1.200E+01  6.000E-02  1.131E+00
   1    3    5     3     1    2.0000E+00  2.8252E-01   1.7175E+00  0.000E+00  0.000E+00  0.000E+00  1.07555E+03  1.909E+00  9.636E+00  7.227E-02  1.955E+00
   1    3    6     3     2    1.7175E+00  2.4905E-01   1.4684E+00  0.000E+00  0.000E+00  0.000E+00  1.07264E+03  1.727E+00  8.909E+00  6.682E-02  1.864E+00
   1    3    7     3     3    1.4684E+00  1.9718E-01   1.2712E+00  0.000E+00  0.000E+00  0.000E+00  1.06987E+03  1.555E+00  8.218E+00  5.547E-02  1.777E+00
   1    4    8     3     4    1.2712E+00  2.2567E-01   1.0456E+00  0.000E+00  0.000E+00  0.000E+00  1.06682E+03  1.364E+00  7.455E+00  6.709E-02  1.682E+00
   1    5    8     3     5    1.0456E+00  1.5790E-01   8.8768E-01  0.000E+00  0.000E+00  0.000E+00  1.06362E+03  1.164E+00  6.655E+00  4.991E-02  1.582E+00
   1    6    8     3     6    8.8768E-01  5.5980E-02   8.3170E-01  0.000E+00  0.000E+00  0.000E+00  1.06158E+03  1.036E+00  6.145E+00  1.844E-02  1.518E+00
   1    5   10     4     1    1.0000E+01  9.0919E-02   9.9091E+00  0.000E+00  0.000E+00  0.000E+00  1.07836E+03  6.368E-01  1.000E+01  2.500E-02  1.212E+00
   1    5    9     4     2    9.9091E+00  1.8158E-01   9.7275E+00  0.000E+00  0.000E+00  0.000E+00  1.07154E+03  6.315E-01  1.000E+01  5.000E-02  1.211E+00
   1    6    8     4     3    9.7275E+00  1.2689E-01   9.6006E+00  0.000E+00  0.000E+00  0.000E+00  1.06381E+03  6.256E-01  1.000E+01  3.500E-02  1.209E+00
   1    6    8     5     1    1.0432E+01  2.2686E-01   1.0205E+01  0.000E+00  0.000E+00  0.000E+00  1.05868E+03  6.790E-01  1.542E+01  6.166E-02  1.226E+00
   1    7    7     5     2    1.0205E+01  2.7894E-01   9.9265E+00  0.000E+00  0.000E+00  0.000E+00  1.05417E+03  6.732E-01  1.519E+01  7.594E-02  1.224E+00
   1    8    7     5     3    9.9265E+00  1.9221E-01   9.7343E+00  0.000E+00  0.000E+00  0.000E+00  1.04992E+03  6.676E-01  1.497E+01  5.241E-02  1.223E+00
   1    8    6     5     4    9.7343E+00  1.3577E-01   9.5985E+00  0.000E+00  0.000E+00  0.000E+00  1.04691E+03  6.637E-01  1.482E+01  3.706E-02  1.221E+00
   1    9    6     6     1    1.3361E+01  2.3005E-01   1.3131E+01  0.000E+00  0.000E+00  0.000E+00  1.04356E+03  8.341E-01  1.200E+01  6.000E-02  1.278E+00
   1   10    7     6     2    1.3131E+01  2.2952E-01   1.2901E+01  0.000E+00  0.000E+00  0.000E+00  1.03901E+03  8.254E-01  1.200E+01  6.000E-02  1.275E+00
   1   11    7     6     3    1.2901E+01  2.2900E-01   1.2672E+01  0.000E+00  0.000E+00  0.000E+00  1.03445E+03  8.166E-01  1.200E+01  6.000E-02  1.272E+00
   1   12    7     6     4    1.2672E+01  2.2847E-01   1.2444E+01  0.000E+00  0.000E+00  0.000E+00  1.02990E+03  8.078E-01  1.200E+01  6.000E-02  1.269E+00
   1   13    7     6     5    1.2444E+01  1.0719E-03   1.2442E+01  0.000E+00  0.000E+00  0.000E+00  1.02671E+03  8.034E-01  1.200E+01  2.400E-02  1.489E-02
   1   14    9     7     1    1.5000E+02  1.3780E+00   1.4862E+02  0.000E+00  0.000E+00  0.000E+00  1.03987E+03  2.288E+00  5.529E+01  5.593E-01  8.213E-01
   1   13    8     7     2    1.4862E+02  1.9637E+00   1.4666E+02  0.000E+00  0.000E+00  0.000E+00  1.03478E+03  2.279E+00  5.525E+01  6.147E-01  1.065E+00
   1   13    7     7     3    1.4666E+02  1.6866E+00   1.4497E+02  0.000E+00  0.000E+00  0.000E+00  1.02969E+03  2.269E+00  5.521E+01  5.584E-01  1.007E+00
   1   13    6     8     1    1.5741E+02  1.0699E+00   1.5634E+02  0.000E+00  0.000E+00  0.000E+00  1.02474E+03  2.865E+00  4.154E+01  4.233E-01  8.425E-01
   1   13    5     8     2    1.5634E+02  3.2905E-01   1.5602E+02  0.000E+00  0.000E+00  0.000E+00  1.01848E+03  2.860E+00  4.147E+01  4.226E-01  2.596E-01
   1   13    4     8     3    1.5602E+02 -1.8853E+00   1.5790E+02  0.000E+00  0.000E+00  0.000E+00  1.01224E+03  2.865E+00  4.154E+01  4.234E+00 -1.484E-01
   1   13    3     8     4    1.5790E+02 -3.3832E+00   1.6128E+02  0.000E+00  0.000E+00  0.000E+00  1.00601E+03  2.883E+00  4.180E+01  4.260E+00 -2.647E-01
   1   13    2     8     5    1.6128E+02 -2.5174E+00   1.6380E+02  0.000E+00  0.000E+00  0.000E+00  9.99778E+02  2.903E+00  4.209E+01  4.289E+00 -1.956E-01
   1   13    1     8     6    1.6380E+02 -1.9656E+00   1.6577E+02  0.000E+00  0.000E+00  0.000E+00  9.94793E+02  2.918E+00  4.231E+01  2.587E+00 -2.533E-01
   1    8    6     9     1    0.0000E+00  0.0000E+00   0.0000E+00  0.000E+00  0.000E+00  0.000E+00  1.07875E+03  0.000E+00  4.000E+00  0.000E+00  1.000E+00
   1    8    5     9     2    0.0000E+00  0.0000E+00   0.0000E+00  0.000E+00  0.000E+00  0.000E+00  1.07825E+03  0.000E+00  4.000E+00  0.000E+00  1.000E+00





UNSATURATED ZONE PACKAGE VOLUMETRIC BUDGET FOR  TIME STEP    30 STRESS PERIOD   25
  ------------------------------------------------------------------------------



     CUMULATIVE VOLUMES      L**3       RATES FOR THIS TIME STEP      L**3/T
     ------------------                 ------------------------

           IN:                                      IN:
           ---                                      ---
        INFILTRATION =  1036687001.2769          INFILTRATION =           0.8475

          OUT:                                     OUT:
          ----                                     ----
              UZF ET =   861338427.9195                UZF ET =           0.7500
        UZF RECHARGE =      364634.6084          UZF RECHARGE =           0.0983

            IN - OUT =   174983938.7490              IN - OUT =      -8.3994E-04

          STORAGE:                                 STORAGE:
          --------                                 --------
      STORAGE CHANGE =   174984415.2009        STORAGE CHANGE =      -8.3993E-04

 PERCENT DISCREPANCY IS DIFFERENCE BETWEEN IN-OUT MINUS CHANGE IN STORAGE
 DIVIDED BY THE AVERAGE OF IN AND OUT TIMES 100

 PERCENT DISCREPANCY =          -0.00     PERCENT DISCREPANCY =           0.00






1
  VOLUMETRIC BUDGET FOR AGRICULTURAL FIELDS AT  END OF TIME STEP   30, STRESS PERIOD  25
  ------------------------------------------------------------------------------

     CUMULATIVE VOLUMES      L**3       RATES FOR THIS TIME STEP      L**3/T
     ------------------                 ------------------------

           IN:                                      IN:
           ---                                      ---
               AG WELLS  =   665535360.0000                 AG WELLS  =           0.0000
      DIVERSION SEGMENTS =   317583232.0000        DIVERSION SEGMENTS =           0.0000
           GW IRRIGATION =           0.0000             GW IRRIGATION =           0.0000
           SW IRRIGATION =           0.0000             SW IRRIGATION =           0.0000
        SYSTEM LOSSES GW =           0.0000          SYSTEM LOSSES GW =           0.0000
        SYSTEM LOSSES SW =           0.0000          SYSTEM LOSSES SW =           0.0000

                TOTAL IN =   983118592.0000                  TOTAL IN =           0.0000

          OUT:                                     OUT:
          ----                                     ----
               AG WELLS  =           0.0000                 AG WELLS  =           0.0000
      DIVERSION SEGMENTS =           0.0000        DIVERSION SEGMENTS =           0.0000
           GW IRRIGATION =   665535360.0000             GW IRRIGATION =           0.0000
           SW IRRIGATION =   317589344.0000             SW IRRIGATION =           0.0000
        SYSTEM LOSSES GW =           0.0000          SYSTEM LOSSES GW =           0.0000
        SYSTEM LOSSES SW =           0.0000          SYSTEM LOSSES SW =           0.0000

               TOTAL OUT =   983124736.0000                 TOTAL OUT =           0.0000

                IN - OUT =       -6144.0000                  IN - OUT =           0.0000

     PERCENT DISCREPANCY =          -0.00         PERCENT DISCREPANCY =           0.00



1
  VOLUMETRIC BUDGET FOR ENTIRE MODEL AT END OF TIME STEP   30, STRESS PERIOD  25
  ------------------------------------------------------------------------------

     CUMULATIVE VOLUMES      L**3       RATES FOR THIS TIME STEP      L**3/T
     ------------------                 ------------------------

           IN:                                      IN:
           ---                                      ---
             STORAGE     =   970858688.0000               STORAGE     =           6.9202
       CONSTANT HEAD     =           0.0000         CONSTANT HEAD     =           0.0000
     HEAD DEP BOUNDS     =    18210448.0000       HEAD DEP BOUNDS     =           0.2886
      STREAM LEAKAGE     =   742319296.0000        STREAM LEAKAGE     =          11.4559
        UZF RECHARGE     =      364634.5312          UZF RECHARGE     =       9.8340E-02
               GW ET     =           0.0000                 GW ET     =           0.0000
     SURFACE LEAKAGE     =           0.0000       SURFACE LEAKAGE     =           0.0000
           AG WELLS      =           0.0000             AG WELLS      =           0.0000

                TOTAL IN =  1731753088.0000                  TOTAL IN =          18.7631

          OUT:                                     OUT:
          ----                                     ----
             STORAGE     =   406224352.0000               STORAGE     =           8.7246
       CONSTANT HEAD     =           0.0000         CONSTANT HEAD     =           0.0000
     HEAD DEP BOUNDS     =    18202890.0000       HEAD DEP BOUNDS     =           0.2870
      STREAM LEAKAGE     =   641798336.0000        STREAM LEAKAGE     =           9.7515
        UZF RECHARGE     =           0.0000          UZF RECHARGE     =           0.0000
               GW ET     =           0.0000                 GW ET     =           0.0000
     SURFACE LEAKAGE     =           0.0000       SURFACE LEAKAGE     =           0.0000
           AG WELLS      =   665535360.0000             AG WELLS      =           0.0000

               TOTAL OUT =  1731760896.0000                 TOTAL OUT =          18.7631

                IN - OUT =       -7808.0000                  IN - OUT =       7.6294E-06

     PERCENT DISCREPANCY =          -0.00         PERCENT DISCREPANCY =           0.00






         TIME SUMMARY AT END OF TIME STEP   30 IN STRESS PERIOD   25
                    SECONDS     MINUTES      HOURS       DAYS        YEARS
                    -----------------------------------------------------------
   TIME STEP LENGTH  87667.      1461.1      24.352      1.0147     2.77799E-03
 STRESS PERIOD TIME 2.63000E+06  43833.      730.56      30.440     8.33397E-02
         TOTAL TIME 6.32067E+07 1.05345E+06  17557.      731.56      2.0029    
1
1
                            STRESS PERIOD NO.   26, LENGTH =   2630000.    
                            -----------------------------------------------

                              NUMBER OF TIME STEPS =    30

                               MULTIPLIER FOR DELT =     1.000

                            INITIAL TIME STEP SIZE =   87666.66    

 REUSING NON-PARAMETER GHB CELLS FROM LAST STRESS PERIOD

      2 GHB CELLS

 REUSING STREAM SEGMENT DATA FROM LAST STRESS PERIOD



            AREAL INFILTRATION RATE
 READING ON UNIT   19 WITH FORMAT: (FREE)              

            1           2           3           4           5           6           7           8           9          10
 ........................................................................................................................
   1   1.0000E-10  2.0000E-10   0.000       0.000       0.000       0.000       0.000       0.000       0.000       0.000    
   2   2.0000E-10  1.0000E-10  2.0000E-10   0.000       0.000      8.0000E-10  8.0000E-10  5.0000E-10   0.000       0.000    
   3    0.000      5.0000E-10  1.0000E-10  1.0000E-10  8.0000E-10  8.0000E-10  5.0000E-10  5.0000E-10   0.000       0.000    
   4   8.0000E-10  5.0000E-10  1.0000E-10  1.0000E-10  1.0000E-10  1.0000E-10  1.0000E-10  1.0000E-10  2.0000E-10   0.000    
   5   8.0000E-10  5.0000E-10  1.0000E-10  1.0000E-10  1.0000E-10  1.0000E-10  1.0000E-10  1.0000E-10  1.0000E-10  1.0000E-10
   6   8.0000E-10  5.0000E-10  5.0000E-10  2.0000E-10  2.0000E-10  1.0000E-10  1.0000E-10  1.0000E-10  1.0000E-10  5.0000E-10
   7   8.0000E-10  5.0000E-10  5.0000E-10  2.0000E-10  2.0000E-10  1.0000E-10  1.0000E-10  2.0000E-10  2.0000E-10   0.000    
   8    0.000      5.0000E-10  5.0000E-10  2.0000E-10  2.0000E-10  1.0000E-10  1.0000E-10  2.0000E-10  5.0000E-10   0.000    
   9    0.000      5.0000E-10  5.0000E-10  2.0000E-10  2.0000E-10  1.0000E-10  1.0000E-10  2.0000E-10  5.0000E-10   0.000    
  10    0.000      5.0000E-10  5.0000E-10  2.0000E-10  2.0000E-10  1.0000E-10  1.0000E-10  2.0000E-10  5.0000E-10  8.0000E-10
  11    0.000      1.0000E-10  1.0000E-10  1.0000E-10  1.0000E-10  1.0000E-10  1.0000E-10  2.0000E-10  5.0000E-10   0.000    
  12   1.0000E-10  1.0000E-10  1.0000E-10  1.0000E-10  1.0000E-10  1.0000E-10  1.0000E-10  1.0000E-10  2.0000E-10   0.000    
  13   1.0000E-10  1.0000E-10  2.0000E-10  2.0000E-10  2.0000E-10  2.0000E-10  2.0000E-10  1.0000E-10  1.0000E-10   0.000    
  14    0.000      2.0000E-10  5.0000E-10  5.0000E-10  5.0000E-10  5.0000E-10  5.0000E-10  2.0000E-10  1.0000E-10   0.000    
  15    0.000       0.000      8.0000E-10  8.0000E-10  8.0000E-10  8.0000E-10   0.000       0.000       0.000       0.000    

                  ET RATE =  5.000000E-10

 USING ET EXTINCTION DEPTH FROM PREVIOUS STRESS PERIOD. CURRENT PERIOD IS:      26

 USING EXTINCTION WATER CONTENT FROM PREVIOUS STRESS PERIOD. CURRENT PERIOD IS:      26

 USING AIR ENTRY PRESSURE FROM PREVIOUS STRESS PERIOD. CURRENT PERIOD IS:      26

 USING ROOT PRESSURE HEAD FROM PREVIOUS STRESS PERIOD. CURRENT PERIOD IS:      26

 USING ROOT ACTIVITY FROM PREVIOUS STRESS PERIOD. CURRENT PERIOD IS:      26

 PROCESSING AG STRESS PERIOD DATA

 READING AG STRESS PERIOD DATA

 READING IRRIGATION SEGMENT

 READING IRRIGATION WELL

 READING SUPPLEMENTAL WELL

 END PROCESSING AG STRESS PERIOD DATA OPTIONS
 
 SOLVING FOR HEAD 
                                                   Max.-Head-Change                         Max.-Flux-Residual
  Residual-Control   Outer-Iter.   Inner-Iter.     Column Row Layer    Maximum-Head-Change  Column Row Layer    Maximum-Flux-Residual          L2-NORM 
          0                 1           2             4    7     1       0.2192374466E-01       4    7    1         0.1151737473E+01      0.2621536811E+01
          0                 2           2             4    7     1      -0.2131843944E-02       4    7    1        -0.1151744290E+00      0.2549303935E+00
          0                 3           2             4    7     1       0.1451941640E-03       4    7    1         0.8062206891E-02      0.1776172694E-01
          0                 4           1             4    7     1      -0.5776668265E-05       4    7    1        -0.3297447445E-03      0.7263852941E-03

    ------------------------------------------------
       NWT REQUIRED            4 OUTER ITERATIONS 
       AND A TOTAL OF          7 INNER ITERATIONS.
    ------------------------------------------------

 NO OUTPUT CONTROL FOR STRESS PERIOD   26   TIME STEP    1
 
 SOLVING FOR HEAD 
                                                   Max.-Head-Change                         Max.-Flux-Residual
  Residual-Control   Outer-Iter.   Inner-Iter.     Column Row Layer    Maximum-Head-Change  Column Row Layer    Maximum-Flux-Residual          L2-NORM 
          0                 1           2             4    7     1       0.2168543220E-01       4    7    1         0.1139158851E+01      0.2596057808E+01
          0                 2           2             4    7     1      -0.2108669981E-02       4    7    1        -0.1139165510E+00      0.2524659838E+00
          0                 3           2             4    7     1       0.1436158666E-03       4    7    1         0.7974155553E-02      0.1759023268E-01
          0                 4           1             4    7     1      -0.5713873872E-05       4    7    1        -0.3261434431E-03      0.7193922726E-03

    ------------------------------------------------
       NWT REQUIRED            4 OUTER ITERATIONS 
       AND A TOTAL OF          7 INNER ITERATIONS.
    ------------------------------------------------

 NO OUTPUT CONTROL FOR STRESS PERIOD   26   TIME STEP    2
 
 SOLVING FOR HEAD 
                                                   Max.-Head-Change                         Max.-Flux-Residual
  Residual-Control   Outer-Iter.   Inner-Iter.     Column Row Layer    Maximum-Head-Change  Column Row Layer    Maximum-Flux-Residual          L2-NORM 
          0                 1           2             4    7     1       0.2145076021E-01       4    7    1         0.1126773020E+01      0.2573077808E+01
          0                 2           2             4    7     1      -0.2085849986E-02       4    7    1        -0.1126779526E+00      0.2502513239E+00
          0                 3           2             4    7     1       0.1420616778E-03       4    7    1         0.7887453776E-02      0.1743609408E-01
          0                 4           1             4    7     1      -0.5652038493E-05       4    7    1        -0.3225973298E-03      0.7130917808E-03

    ------------------------------------------------
       NWT REQUIRED            4 OUTER ITERATIONS 
       AND A TOTAL OF          7 INNER ITERATIONS.
    ------------------------------------------------

 NO OUTPUT CONTROL FOR STRESS PERIOD   26   TIME STEP    3
 
 SOLVING FOR HEAD 
                                                   Max.-Head-Change                         Max.-Flux-Residual
  Residual-Control   Outer-Iter.   Inner-Iter.     Column Row Layer    Maximum-Head-Change  Column Row Layer    Maximum-Flux-Residual          L2-NORM 
          0                 1           2             4    7     1       0.2121965289E-01       4    7    1         0.1114575949E+01      0.2550554696E+01
          0                 2           2             4    7     1      -0.2063376761E-02       4    7    1        -0.1114582307E+00      0.2480953244E+00
          0                 3           2             4    7     1       0.1405311076E-03       4    7    1         0.7802073348E-02      0.1728605762E-01
          0                 4           1             4    7     1      -0.5591143245E-05       4    7    1        -0.3191052749E-03      0.7070149922E-03

    ------------------------------------------------
       NWT REQUIRED            4 OUTER ITERATIONS 
       AND A TOTAL OF          7 INNER ITERATIONS.
    ------------------------------------------------

 NO OUTPUT CONTROL FOR STRESS PERIOD   26   TIME STEP    4
 
 SOLVING FOR HEAD 
                                                   Max.-Head-Change                         Max.-Flux-Residual
  Residual-Control   Outer-Iter.   Inner-Iter.     Column Row Layer    Maximum-Head-Change  Column Row Layer    Maximum-Flux-Residual          L2-NORM 
          0                 1           2             4    7     1       0.2099217667E-01       4    7    1         0.1102571000E+01      0.2528355686E+01
          0                 2           2             4    7     1      -0.2041256285E-02       4    7    1        -0.1102577212E+00      0.2459401168E+00
          0                 3           2             4    7     1       0.1390245625E-03       4    7    1         0.7718037806E-02      0.1713604382E-01
          0                 4           1             4    7     1      -0.5531203441E-05       4    7    1        -0.3156682142E-03      0.7008209010E-03

    ------------------------------------------------
       NWT REQUIRED            4 OUTER ITERATIONS 
       AND A TOTAL OF          7 INNER ITERATIONS.
    ------------------------------------------------

 NO OUTPUT CONTROL FOR STRESS PERIOD   26   TIME STEP    5
 
 SOLVING FOR HEAD 
                                                   Max.-Head-Change                         Max.-Flux-Residual
  Residual-Control   Outer-Iter.   Inner-Iter.     Column Row Layer    Maximum-Head-Change  Column Row Layer    Maximum-Flux-Residual          L2-NORM 
          0                 1           2             4    7     1       0.2076824924E-01       4    7    1         0.1090754343E+01      0.2506437527E+01
          0                 2           2             4    7     1      -0.2019481037E-02       4    7    1        -0.1090760414E+00      0.2438256533E+00
          0                 3           2             4    7     1       0.1375415299E-03       4    7    1         0.7635320305E-02      0.1698885725E-01
          0                 4           1             4    7     1      -0.5472198934E-05       4    7    1        -0.3122850555E-03      0.6948032828E-03

    ------------------------------------------------
       NWT REQUIRED            4 OUTER ITERATIONS 
       AND A TOTAL OF          7 INNER ITERATIONS.
    ------------------------------------------------

 NO OUTPUT CONTROL FOR STRESS PERIOD   26   TIME STEP    6
 
 SOLVING FOR HEAD 
                                                   Max.-Head-Change                         Max.-Flux-Residual
  Residual-Control   Outer-Iter.   Inner-Iter.     Column Row Layer    Maximum-Head-Change  Column Row Layer    Maximum-Flux-Residual          L2-NORM 
          0                 1           2             4    7     1       0.2054766004E-01       4    7    1         0.1079114382E+01      0.2484833933E+01
          0                 2           2             4    7     1      -0.1998030393E-02       4    7    1        -0.1079120315E+00      0.2417410538E+00
          0                 3           2             4    7     1       0.1360806059E-03       4    7    1         0.7553839706E-02      0.1684374988E-01
          0                 4           1             4    7     1      -0.5414074463E-05       4    7    1        -0.3089525010E-03      0.6888653561E-03

    ------------------------------------------------
       NWT REQUIRED            4 OUTER ITERATIONS 
       AND A TOTAL OF          7 INNER ITERATIONS.
    ------------------------------------------------

 NO OUTPUT CONTROL FOR STRESS PERIOD   26   TIME STEP    7
 
 SOLVING FOR HEAD 
                                                   Max.-Head-Change                         Max.-Flux-Residual
  Residual-Control   Outer-Iter.   Inner-Iter.     Column Row Layer    Maximum-Head-Change  Column Row Layer    Maximum-Flux-Residual          L2-NORM 
          0                 1           2             4    7     1       0.2033047913E-01       4    7    1         0.1067654810E+01      0.2463543329E+01
          0                 2           2             4    7     1      -0.1976911154E-02       4    7    1        -0.1067660609E+00      0.2396858614E+00
          0                 3           2             4    7     1       0.1346422537E-03       4    7    1         0.7473621865E-02      0.1670069248E-01
          0                 4           1             4    7     1      -0.5356847641E-05       4    7    1        -0.3056715943E-03      0.6830265544E-03

    ------------------------------------------------
       NWT REQUIRED            4 OUTER ITERATIONS 
       AND A TOTAL OF          7 INNER ITERATIONS.
    ------------------------------------------------

 NO OUTPUT CONTROL FOR STRESS PERIOD   26   TIME STEP    8
 
 SOLVING FOR HEAD 
                                                   Max.-Head-Change                         Max.-Flux-Residual
  Residual-Control   Outer-Iter.   Inner-Iter.     Column Row Layer    Maximum-Head-Change  Column Row Layer    Maximum-Flux-Residual          L2-NORM 
          0                 1           2             4    7     1       0.2011663604E-01       4    7    1         0.1056371961E+01      0.2442560205E+01
          0                 2           2             4    7     1      -0.1956116489E-02       4    7    1        -0.1056377629E+00      0.2376599737E+00
          0                 3           2             4    7     1       0.1332260071E-03       4    7    1         0.7394641101E-02      0.1655965658E-01
          0                 4           1             4    7     1      -0.5300500855E-05       4    7    1        -0.3024412856E-03      0.6772464942E-03

    ------------------------------------------------
       NWT REQUIRED            4 OUTER ITERATIONS 
       AND A TOTAL OF          7 INNER ITERATIONS.
    ------------------------------------------------

 NO OUTPUT CONTROL FOR STRESS PERIOD   26   TIME STEP    9
 
 SOLVING FOR HEAD 
                                                   Max.-Head-Change                         Max.-Flux-Residual
  Residual-Control   Outer-Iter.   Inner-Iter.     Column Row Layer    Maximum-Head-Change  Column Row Layer    Maximum-Flux-Residual          L2-NORM 
          0                 1           2             4    7     1       0.1990605823E-01       4    7    1         0.1045262178E+01      0.2421873865E+01
          0                 2           2             4    7     1      -0.1935639327E-02       4    7    1        -0.1045267719E+00      0.2356620670E+00
          0                 3           2             4    7     1       0.1318313848E-03       4    7    1         0.7316871811E-02      0.1642057356E-01
          0                 4           1             4    7     1      -0.5245013726E-05       4    7    1        -0.2992605100E-03      0.6715211873E-03

    ------------------------------------------------
       NWT REQUIRED            4 OUTER ITERATIONS 
       AND A TOTAL OF          7 INNER ITERATIONS.
    ------------------------------------------------

 NO OUTPUT CONTROL FOR STRESS PERIOD   26   TIME STEP   10
 
 SOLVING FOR HEAD 
                                                   Max.-Head-Change                         Max.-Flux-Residual
  Residual-Control   Outer-Iter.   Inner-Iter.     Column Row Layer    Maximum-Head-Change  Column Row Layer    Maximum-Flux-Residual          L2-NORM 
          0                 1           2             4    7     1       0.1969854574E-01       4    7    1         0.1034314397E+01      0.2401478303E+01
          0                 2           2             4    7     1      -0.1915460231E-02       4    7    1        -0.1034319813E+00      0.2336917607E+00
          0                 3           2             4    7     1       0.1304570634E-03       4    7    1         0.7240236567E-02      0.1628340975E-01
          0                 4           1             4    7     1      -0.5190334563E-05       4    7    1        -0.2961261173E-03      0.6659559756E-03

    ------------------------------------------------
       NWT REQUIRED            4 OUTER ITERATIONS 
       AND A TOTAL OF          7 INNER ITERATIONS.
    ------------------------------------------------

 NO OUTPUT CONTROL FOR STRESS PERIOD   26   TIME STEP   11
 
 SOLVING FOR HEAD 
                                                   Max.-Head-Change                         Max.-Flux-Residual
  Residual-Control   Outer-Iter.   Inner-Iter.     Column Row Layer    Maximum-Head-Change  Column Row Layer    Maximum-Flux-Residual          L2-NORM 
          0                 1           2             4    7     1       0.1949430560E-01       4    7    1         0.1023540161E+01      0.2381373125E+01
          0                 2           2             4    7     1      -0.1895599343E-02       4    7    1        -0.1023545457E+00      0.2317491205E+00
          0                 3           2             4    7     1       0.1291044139E-03       4    7    1         0.7164816152E-02      0.1614816897E-01
          0                 4           1             4    7     1      -0.5136517476E-05       4    7    1        -0.2930414155E-03      0.6604227604E-03

    ------------------------------------------------
       NWT REQUIRED            4 OUTER ITERATIONS 
       AND A TOTAL OF          7 INNER ITERATIONS.
    ------------------------------------------------

 NO OUTPUT CONTROL FOR STRESS PERIOD   26   TIME STEP   12
 
 SOLVING FOR HEAD 
                                                   Max.-Head-Change                         Max.-Flux-Residual
  Residual-Control   Outer-Iter.   Inner-Iter.     Column Row Layer    Maximum-Head-Change  Column Row Layer    Maximum-Flux-Residual          L2-NORM 
          0                 1           2             4    7     1       0.1929299973E-01       4    7    1         0.1012920989E+01      0.2361543360E+01
          0                 2           2             4    7     1      -0.1876023782E-02       4    7    1        -0.1012926167E+00      0.2298326744E+00
          0                 3           2             4    7     1       0.1277711976E-03       4    7    1         0.7090481213E-02      0.1601474218E-01
          0                 4           1             4    7     1      -0.5083473931E-05       4    7    1        -0.2900011136E-03      0.6549680281E-03

    ------------------------------------------------
       NWT REQUIRED            4 OUTER ITERATIONS 
       AND A TOTAL OF          7 INNER ITERATIONS.
    ------------------------------------------------

 NO OUTPUT CONTROL FOR STRESS PERIOD   26   TIME STEP   13
 
 SOLVING FOR HEAD 
                                                   Max.-Head-Change                         Max.-Flux-Residual
  Residual-Control   Outer-Iter.   Inner-Iter.     Column Row Layer    Maximum-Head-Change  Column Row Layer    Maximum-Flux-Residual          L2-NORM 
          0                 1           2             4    7     1       0.1909470773E-01       4    7    1         0.1002461265E+01      0.2341992568E+01
          0                 2           2             4    7     1      -0.1856741292E-02       4    7    1        -0.1002466327E+00      0.2279428725E+00
          0                 3           2             4    7     1       0.1264579412E-03       4    7    1         0.7017262414E-02      0.1588317894E-01
          0                 4           1             4    7     1      -0.5031224075E-05       4    7    1        -0.2870064502E-03      0.6495816798E-03

    ------------------------------------------------
       NWT REQUIRED            4 OUTER ITERATIONS 
       AND A TOTAL OF          7 INNER ITERATIONS.
    ------------------------------------------------

 NO OUTPUT CONTROL FOR STRESS PERIOD   26   TIME STEP   14
 
 SOLVING FOR HEAD 
                                                   Max.-Head-Change                         Max.-Flux-Residual
  Residual-Control   Outer-Iter.   Inner-Iter.     Column Row Layer    Maximum-Head-Change  Column Row Layer    Maximum-Flux-Residual          L2-NORM 
          0                 1           2             4    7     1       0.1889950208E-01       4    7    1         0.9921651138E+00      0.2322712161E+01
          0                 2           2             4    7     1      -0.1837758927E-02       4    7    1        -0.9921700646E-01      0.2260788995E+00
          0                 3           2             4    7     1       0.1251651255E-03       4    7    1         0.6945188652E-02      0.1575339360E-01
          0                 4           1             4    7     1      -0.4979787596E-05       4    7    1        -0.2840586396E-03      0.6442718335E-03

    ------------------------------------------------
       NWT REQUIRED            4 OUTER ITERATIONS 
       AND A TOTAL OF          7 INNER ITERATIONS.
    ------------------------------------------------

 NO OUTPUT CONTROL FOR STRESS PERIOD   26   TIME STEP   15
 
 SOLVING FOR HEAD 
                                                   Max.-Head-Change                         Max.-Flux-Residual
  Residual-Control   Outer-Iter.   Inner-Iter.     Column Row Layer    Maximum-Head-Change  Column Row Layer    Maximum-Flux-Residual          L2-NORM 
          0                 1           2             4    7     1       0.1870704832E-01       4    7    1         0.9820143807E+00      0.2303697239E+01
          0                 2           2             4    7     1      -0.1819044148E-02       4    7    1        -0.9820192222E-01      0.2242401332E+00
          0                 3           2             4    7     1       0.1238905346E-03       4    7    1         0.6874132835E-02      0.1562536097E-01
          0                 4           1             4    7     1      -0.4929076536E-05       4    7    1        -0.2811524544E-03      0.6390336443E-03

    ------------------------------------------------
       NWT REQUIRED            4 OUTER ITERATIONS 
       AND A TOTAL OF          7 INNER ITERATIONS.
    ------------------------------------------------

 NO OUTPUT CONTROL FOR STRESS PERIOD   26   TIME STEP   16
 
 SOLVING FOR HEAD 
                                                   Max.-Head-Change                         Max.-Flux-Residual
  Residual-Control   Outer-Iter.   Inner-Iter.     Column Row Layer    Maximum-Head-Change  Column Row Layer    Maximum-Flux-Residual          L2-NORM 
          0                 1           2             4    7     1       0.1851756375E-01       4    7    1         0.9720209444E+00      0.2284947573E+01
          0                 2           2             4    7     1      -0.1800618105E-02       4    7    1        -0.9720256796E-01      0.2224267959E+00
          0                 3           1             4    7     1       0.1226356111E-03       4    7    1         0.6804178088E-02      0.1549910794E-01
          0                 4           1             4    7     1      -0.4879150992E-05       4    7    1        -0.2782913016E-03      0.6338710375E-03

    ------------------------------------------------
       NWT REQUIRED            4 OUTER ITERATIONS 
       AND A TOTAL OF          6 INNER ITERATIONS.
    ------------------------------------------------

 NO OUTPUT CONTROL FOR STRESS PERIOD   26   TIME STEP   17
 
 SOLVING FOR HEAD 
                                                   Max.-Head-Change                         Max.-Flux-Residual
  Residual-Control   Outer-Iter.   Inner-Iter.     Column Row Layer    Maximum-Head-Change  Column Row Layer    Maximum-Flux-Residual          L2-NORM 
          0                 1           2             4    7     1       0.1833085048E-01       4    7    1         0.9621741554E+00      0.2266454051E+01
          0                 2           2             4    7     1      -0.1782484087E-02       4    7    1        -0.9621787870E-01      0.2206729644E+00
          0                 3           1             4    7     1       0.1214005666E-03       4    7    1         0.6735249917E-02      0.1537702628E-01
          0                 4           1             4    7     1      -0.4830013265E-05       4    7    1        -0.2754721270E-03      0.6288829346E-03

    ------------------------------------------------
       NWT REQUIRED            4 OUTER ITERATIONS 
       AND A TOTAL OF          6 INNER ITERATIONS.
    ------------------------------------------------

 NO OUTPUT CONTROL FOR STRESS PERIOD   26   TIME STEP   18
 
 SOLVING FOR HEAD 
                                                   Max.-Head-Change                         Max.-Flux-Residual
  Residual-Control   Outer-Iter.   Inner-Iter.     Column Row Layer    Maximum-Head-Change  Column Row Layer    Maximum-Flux-Residual          L2-NORM 
          0                 1           2             4    7     1       0.1814674145E-01       4    7    1         0.9524698571E+00      0.2248185110E+01
          0                 2           2             4    7     1      -0.1764558408E-02       4    7    1        -0.9524743896E-01      0.2188704428E+00
          0                 3           1             4    7     1       0.1201797201E-03       4    7    1         0.6667319209E-02      0.1525150289E-01
          0                 4           1             4    7     1      -0.4781440010E-05       4    7    1        -0.2726937601E-03      0.6237462004E-03

    ------------------------------------------------
       NWT REQUIRED            4 OUTER ITERATIONS 
       AND A TOTAL OF          6 INNER ITERATIONS.
    ------------------------------------------------

 NO OUTPUT CONTROL FOR STRESS PERIOD   26   TIME STEP   19
 
 SOLVING FOR HEAD 
                                                   Max.-Head-Change                         Max.-Flux-Residual
  Residual-Control   Outer-Iter.   Inner-Iter.     Column Row Layer    Maximum-Head-Change  Column Row Layer    Maximum-Flux-Residual          L2-NORM 
          0                 1           2             4    7     1       0.1796525963E-01       4    7    1         0.9429029820E+00      0.2230112085E+01
          0                 2           2             4    7     1      -0.1746910573E-02       4    7    1        -0.9429074172E-01      0.2171214172E+00
          0                 3           1             4    7     1       0.1189777950E-03       4    7    1         0.6600350482E-02      0.1512970773E-01
          0                 4           1             4    7     1      -0.4733619804E-05       4    7    1        -0.2699547401E-03      0.6187572842E-03

    ------------------------------------------------
       NWT REQUIRED            4 OUTER ITERATIONS 
       AND A TOTAL OF          6 INNER ITERATIONS.
    ------------------------------------------------

 NO OUTPUT CONTROL FOR STRESS PERIOD   26   TIME STEP   20
 
 SOLVING FOR HEAD 
                                                   Max.-Head-Change                         Max.-Flux-Residual
  Residual-Control   Outer-Iter.   Inner-Iter.     Column Row Layer    Maximum-Head-Change  Column Row Layer    Maximum-Flux-Residual          L2-NORM 
          0                 1           2             4    7     1       0.1778647227E-01       4    7    1         0.9334784429E+00      0.2212287766E+01
          0                 2           2             4    7     1      -0.1729524761E-02       4    7    1        -0.9334827832E-01      0.2153964391E+00
          0                 3           1             4    7     1       0.1177937144E-03       4    7    1         0.6534378093E-02      0.1500961420E-01
          0                 4           1             4    7     1      -0.4686509590E-05       4    7    1        -0.2672564594E-03      0.6138612600E-03

    ------------------------------------------------
       NWT REQUIRED            4 OUTER ITERATIONS 
       AND A TOTAL OF          6 INNER ITERATIONS.
    ------------------------------------------------

 NO OUTPUT CONTROL FOR STRESS PERIOD   26   TIME STEP   21
 
 SOLVING FOR HEAD 
                                                   Max.-Head-Change                         Max.-Flux-Residual
  Residual-Control   Outer-Iter.   Inner-Iter.     Column Row Layer    Maximum-Head-Change  Column Row Layer    Maximum-Flux-Residual          L2-NORM 
          0                 1           2             4    7     1       0.1761019487E-01       4    7    1         0.9241863045E+00      0.2194709651E+01
          0                 2           2             4    7     1      -0.1712383019E-02       4    7    1        -0.9241905520E-01      0.2136950911E+00
          0                 3           1             4    7     1       0.1166262566E-03       4    7    1         0.6469332517E-02      0.1489116000E-01
          0                 4           1             4    7     1      -0.4640060668E-05       4    7    1        -0.2645960888E-03      0.6090114454E-03

    ------------------------------------------------
       NWT REQUIRED            4 OUTER ITERATIONS 
       AND A TOTAL OF          6 INNER ITERATIONS.
    ------------------------------------------------

 NO OUTPUT CONTROL FOR STRESS PERIOD   26   TIME STEP   22
 
 SOLVING FOR HEAD 
                                                   Max.-Head-Change                         Max.-Flux-Residual
  Residual-Control   Outer-Iter.   Inner-Iter.     Column Row Layer    Maximum-Head-Change  Column Row Layer    Maximum-Flux-Residual          L2-NORM 
          0                 1           2             4    7     1       0.1743638210E-01       4    7    1         0.9150243076E+00      0.2177357317E+01
          0                 2           2             4    7     1      -0.1695480950E-02       4    7    1        -0.9150284646E-01      0.2120154889E+00
          0                 3           1             4    7     1       0.1154751225E-03       4    7    1         0.6405197976E-02      0.1477426030E-01
          0                 4           1             4    7     1      -0.4594261182E-05       4    7    1        -0.2619729817E-03      0.6042303335E-03

    ------------------------------------------------
       NWT REQUIRED            4 OUTER ITERATIONS 
       AND A TOTAL OF          6 INNER ITERATIONS.
    ------------------------------------------------

 NO OUTPUT CONTROL FOR STRESS PERIOD   26   TIME STEP   23
 
 SOLVING FOR HEAD 
                                                   Max.-Head-Change                         Max.-Flux-Residual
  Residual-Control   Outer-Iter.   Inner-Iter.     Column Row Layer    Maximum-Head-Change  Column Row Layer    Maximum-Flux-Residual          L2-NORM 
          0                 1           2             4    7     1       0.1726512983E-01       4    7    1         0.9059974088E+00      0.2160250538E+01
          0                 2           2             4    7     1      -0.1678827871E-02       4    7    1        -0.9060014770E-01      0.2103595066E+00
          0                 3           1             4    7     1       0.1143409459E-03       4    7    1         0.6342009123E-02      0.1465888565E-01
          0                 4           1             4    7     1      -0.4549136344E-05       4    7    1        -0.2593885458E-03      0.5995147438E-03

    ------------------------------------------------
       NWT REQUIRED            4 OUTER ITERATIONS 
       AND A TOTAL OF          6 INNER ITERATIONS.
    ------------------------------------------------

 NO OUTPUT CONTROL FOR STRESS PERIOD   26   TIME STEP   24
 
 SOLVING FOR HEAD 
                                                   Max.-Head-Change                         Max.-Flux-Residual
  Residual-Control   Outer-Iter.   Inner-Iter.     Column Row Layer    Maximum-Head-Change  Column Row Layer    Maximum-Flux-Residual          L2-NORM 
          0                 1           2             4    7     1       0.1709625099E-01       4    7    1         0.8970959654E+00      0.2143364473E+01
          0                 2           2             4    7     1      -0.1662405596E-02       4    7    1        -0.8970999472E-01      0.2087247070E+00
          0                 3           1             4    7     1       0.1132224885E-03       4    7    1         0.6279698461E-02      0.1454504645E-01
          0                 4           1             4    7     1      -0.4504637223E-05       4    7    1        -0.2568400530E-03      0.5948642664E-03

    ------------------------------------------------
       NWT REQUIRED            4 OUTER ITERATIONS 
       AND A TOTAL OF          6 INNER ITERATIONS.
    ------------------------------------------------

 NO OUTPUT CONTROL FOR STRESS PERIOD   26   TIME STEP   25
 
 SOLVING FOR HEAD 
                                                   Max.-Head-Change                         Max.-Flux-Residual
  Residual-Control   Outer-Iter.   Inner-Iter.     Column Row Layer    Maximum-Head-Change  Column Row Layer    Maximum-Flux-Residual          L2-NORM 
          0                 1           2             4    7     1       0.1692983943E-01       4    7    1         0.8883248917E+00      0.2126703794E+01
          0                 2           2             4    7     1      -0.1646223248E-02       4    7    1        -0.8883287891E-01      0.2071118729E+00
          0                 3           1             4    7     1       0.1121203716E-03       4    7    1         0.6218300422E-02      0.1443275735E-01
          0                 4           1             4    7     1      -0.4460787884E-05       4    7    1        -0.2543288626E-03      0.5902644879E-03

    ------------------------------------------------
       NWT REQUIRED            4 OUTER ITERATIONS 
       AND A TOTAL OF          6 INNER ITERATIONS.
    ------------------------------------------------

 NO OUTPUT CONTROL FOR STRESS PERIOD   26   TIME STEP   26
 
 SOLVING FOR HEAD 
                                                   Max.-Head-Change                         Max.-Flux-Residual
  Residual-Control   Outer-Iter.   Inner-Iter.     Column Row Layer    Maximum-Head-Change  Column Row Layer    Maximum-Flux-Residual          L2-NORM 
          0                 1           2             4    7     1       0.1676571713E-01       4    7    1         0.8796744390E+00      0.2110270882E+01
          0                 2           2             4    7     1      -0.1630263519E-02       4    7    1        -0.8796782540E-01      0.2055209720E+00
          0                 3           1             4    7     1       0.1110334161E-03       4    7    1         0.6157746724E-02      0.1432197660E-01
          0                 4           1             4    7     1      -0.4417541812E-05       4    7    1        -0.2518522106E-03      0.5857319610E-03

    ------------------------------------------------
       NWT REQUIRED            4 OUTER ITERATIONS 
       AND A TOTAL OF          6 INNER ITERATIONS.
    ------------------------------------------------

 NO OUTPUT CONTROL FOR STRESS PERIOD   26   TIME STEP   27
 
 SOLVING FOR HEAD 
                                                   Max.-Head-Change                         Max.-Flux-Residual
  Residual-Control   Outer-Iter.   Inner-Iter.     Column Row Layer    Maximum-Head-Change  Column Row Layer    Maximum-Flux-Residual          L2-NORM 
          0                 1           2             4    7     1       0.1660384284E-01       4    7    1         0.8711426838E+00      0.2094050885E+01
          0                 2           2             4    7     1      -0.1614522390E-02       4    7    1        -0.8711464181E-01      0.2039504930E+00
          0                 3           1             4    7     1       0.1099613487E-03       4    7    1         0.6098023928E-02      0.1421262039E-01
          0                 4           1             4    7     1      -0.4374888072E-05       4    7    1        -0.2494095365E-03      0.5812637232E-03

    ------------------------------------------------
       NWT REQUIRED            4 OUTER ITERATIONS 
       AND A TOTAL OF          6 INNER ITERATIONS.
    ------------------------------------------------

 NO OUTPUT CONTROL FOR STRESS PERIOD   26   TIME STEP   28
 
 SOLVING FOR HEAD 
                                                   Max.-Head-Change                         Max.-Flux-Residual
  Residual-Control   Outer-Iter.   Inner-Iter.     Column Row Layer    Maximum-Head-Change  Column Row Layer    Maximum-Flux-Residual          L2-NORM 
          0                 1           2             4    7     1       0.1644444357E-01       4    7    1         0.8627421056E+00      0.2078043082E+01
          0                 2           2             4    7     1      -0.1599021953E-02       4    7    1        -0.8627457614E-01      0.2024005923E+00
          0                 3           1             4    7     1       0.1089056740E-03       4    7    1         0.6039219401E-02      0.1410468671E-01
          0                 4           1             4    7     1      -0.4332886761E-05       4    7    1        -0.2470044321E-03      0.5768385856E-03

    ------------------------------------------------
       NWT REQUIRED            4 OUTER ITERATIONS 
       AND A TOTAL OF          6 INNER ITERATIONS.
    ------------------------------------------------

 NO OUTPUT CONTROL FOR STRESS PERIOD   26   TIME STEP   29
 
 SOLVING FOR HEAD 
                                                   Max.-Head-Change                         Max.-Flux-Residual
  Residual-Control   Outer-Iter.   Inner-Iter.     Column Row Layer    Maximum-Head-Change  Column Row Layer    Maximum-Flux-Residual          L2-NORM 
          0                 1           2             4    7     1       0.1628720348E-01       4    7    1         0.8544552394E+00      0.2062250974E+01
          0                 2           2             4    7     1      -0.1583731479E-02       4    7    1        -0.8544588186E-01      0.2008714419E+00
          0                 3           1             4    7     1       0.1078642984E-03       4    7    1         0.5981210841E-02      0.1399821686E-01
          0                 4           1             4    7     1      -0.4291453949E-05       4    7    1        -0.2446318658E-03      0.5725081644E-03

    ------------------------------------------------
       NWT REQUIRED            4 OUTER ITERATIONS 
       AND A TOTAL OF          6 INNER ITERATIONS.
    ------------------------------------------------

 NO OUTPUT CONTROL FOR STRESS PERIOD   26   TIME STEP   30



 STREAM LISTING     PERIOD     26   STEP       30

 LAYER ROW COL. STREAM  RCH.  FLOW INTO     FLOW TO   FLOW OUT OF   OVRLND.     DIRECT     STREAM       STREAM     STREAM     STREAM   STREAMBED  STREAMBED
                SEG.NO.  NO.  STRM. RCH.    AQUIFER    STRM. RCH.    RUNOFF     PRECIP       ET          HEAD       DEPTH      WIDTH   CONDCTNC.   GRADIENT

   1    1    1     1     1    8.2501E+00  1.3178E-01   8.1183E+00  0.000E+00  0.000E+00  0.000E+00  1.09389E+03  8.424E-01  7.622E+00  3.430E-02  1.281E+00
   1    2    2     1     2    8.1183E+00  2.0241E-01   7.9159E+00  0.000E+00  0.000E+00  0.000E+00  1.08890E+03  8.367E-01  7.537E+00  5.276E-02  1.279E+00
   1    3    3     1     3    7.9159E+00  1.7099E-01   7.7449E+00  0.000E+00  0.000E+00  0.000E+00  1.08325E+03  8.302E-01  7.440E+00  4.464E-02  1.277E+00
   1    3    4     1     4    7.7449E+00  1.5612E-01   7.5888E+00  0.000E+00  0.000E+00  0.000E+00  1.07823E+03  8.244E-01  7.355E+00  4.082E-02  1.275E+00
   1    4    5     2     1    5.5888E+00  2.7178E-01   5.3170E+00  0.000E+00  0.000E+00  0.000E+00  1.07242E+03  4.843E-01  1.200E+01  7.800E-02  1.161E+00
   1    5    6     2     2    5.3170E+00  2.0828E-01   5.1088E+00  0.000E+00  0.000E+00  0.000E+00  1.06698E+03  4.714E-01  1.200E+01  6.000E-02  1.157E+00
   1    6    6     2     3    5.1088E+00  2.0760E-01   4.9012E+00  0.000E+00  0.000E+00  0.000E+00  1.06225E+03  4.600E-01  1.200E+01  6.000E-02  1.153E+00
   1    7    6     2     4    4.9012E+00  2.0691E-01   4.6943E+00  0.000E+00  0.000E+00  0.000E+00  1.05752E+03  4.485E-01  1.200E+01  6.000E-02  1.150E+00
   1    8    6     2     5    4.6943E+00  2.0621E-01   4.4880E+00  0.000E+00  0.000E+00  0.000E+00  1.05280E+03  4.368E-01  1.200E+01  6.000E-02  1.146E+00
   1    3    5     3     1    2.0000E+00  2.8252E-01   1.7175E+00  0.000E+00  0.000E+00  0.000E+00  1.07555E+03  1.909E+00  9.636E+00  7.227E-02  1.955E+00
   1    3    6     3     2    1.7175E+00  2.4905E-01   1.4684E+00  0.000E+00  0.000E+00  0.000E+00  1.07264E+03  1.727E+00  8.909E+00  6.682E-02  1.864E+00
   1    3    7     3     3    1.4684E+00  1.9718E-01   1.2712E+00  0.000E+00  0.000E+00  0.000E+00  1.06987E+03  1.555E+00  8.218E+00  5.547E-02  1.777E+00
   1    4    8     3     4    1.2712E+00  2.2567E-01   1.0456E+00  0.000E+00  0.000E+00  0.000E+00  1.06682E+03  1.364E+00  7.455E+00  6.709E-02  1.682E+00
   1    5    8     3     5    1.0456E+00  1.5790E-01   8.8768E-01  0.000E+00  0.000E+00  0.000E+00  1.06362E+03  1.164E+00  6.655E+00  4.991E-02  1.582E+00
   1    6    8     3     6    8.8768E-01  5.5980E-02   8.3170E-01  0.000E+00  0.000E+00  0.000E+00  1.06158E+03  1.036E+00  6.145E+00  1.844E-02  1.518E+00
   1    5   10     4     1    1.0000E+01  9.0919E-02   9.9091E+00  0.000E+00  0.000E+00  0.000E+00  1.07836E+03  6.368E-01  1.000E+01  2.500E-02  1.212E+00
   1    5    9     4     2    9.9091E+00  1.8158E-01   9.7275E+00  0.000E+00  0.000E+00  0.000E+00  1.07154E+03  6.315E-01  1.000E+01  5.000E-02  1.211E+00
   1    6    8     4     3    9.7275E+00  1.2689E-01   9.6006E+00  0.000E+00  0.000E+00  0.000E+00  1.06381E+03  6.256E-01  1.000E+01  3.500E-02  1.209E+00
   1    6    8     5     1    1.0432E+01  2.2686E-01   1.0205E+01  0.000E+00  0.000E+00  0.000E+00  1.05868E+03  6.790E-01  1.542E+01  6.166E-02  1.226E+00
   1    7    7     5     2    1.0205E+01  2.7894E-01   9.9265E+00  0.000E+00  0.000E+00  0.000E+00  1.05417E+03  6.732E-01  1.519E+01  7.594E-02  1.224E+00
   1    8    7     5     3    9.9265E+00  1.9221E-01   9.7343E+00  0.000E+00  0.000E+00  0.000E+00  1.04992E+03  6.676E-01  1.497E+01  5.241E-02  1.223E+00
   1    8    6     5     4    9.7343E+00  1.3577E-01   9.5985E+00  0.000E+00  0.000E+00  0.000E+00  1.04691E+03  6.637E-01  1.482E+01  3.706E-02  1.221E+00
   1    9    6     6     1    1.4087E+01  2.3167E-01   1.3855E+01  0.000E+00  0.000E+00  0.000E+00  1.04359E+03  8.612E-01  1.200E+01  6.000E-02  1.287E+00
   1   10    7     6     2    1.3855E+01  2.3116E-01   1.3624E+01  0.000E+00  0.000E+00  0.000E+00  1.03903E+03  8.526E-01  1.200E+01  6.000E-02  1.284E+00
   1   11    7     6     3    1.3624E+01  2.3064E-01   1.3393E+01  0.000E+00  0.000E+00  0.000E+00  1.03448E+03  8.440E-01  1.200E+01  6.000E-02  1.281E+00
   1   12    7     6     4    1.3393E+01  2.3012E-01   1.3163E+01  0.000E+00  0.000E+00  0.000E+00  1.02993E+03  8.353E-01  1.200E+01  6.000E-02  1.278E+00
   1   13    7     6     5    1.3163E+01  2.2268E-03   1.3161E+01  0.000E+00  0.000E+00  0.000E+00  1.02674E+03  8.309E-01  1.200E+01  2.400E-02  3.093E-02
   1   14    9     7     1    1.5000E+02  1.3790E+00   1.4862E+02  0.000E+00  0.000E+00  0.000E+00  1.03987E+03  2.288E+00  5.529E+01  5.593E-01  8.219E-01
   1   13    8     7     2    1.4862E+02  1.9686E+00   1.4665E+02  0.000E+00  0.000E+00  0.000E+00  1.03478E+03  2.279E+00  5.525E+01  6.147E-01  1.067E+00
   1   13    7     7     3    1.4665E+02  1.6980E+00   1.4495E+02  0.000E+00  0.000E+00  0.000E+00  1.02969E+03  2.269E+00  5.521E+01  5.584E-01  1.014E+00
   1   13    6     8     1    1.5812E+02  1.0851E+00   1.5703E+02  0.000E+00  0.000E+00  0.000E+00  1.02474E+03  2.869E+00  4.161E+01  4.240E-01  8.531E-01
   1   13    5     8     2    1.5703E+02  3.4248E-01   1.5669E+02  0.000E+00  0.000E+00  0.000E+00  1.01849E+03  2.864E+00  4.153E+01  4.233E-01  2.697E-01
   1   13    4     8     3    1.5669E+02 -1.8413E+00   1.5853E+02  0.000E+00  0.000E+00  0.000E+00  1.01224E+03  2.870E+00  4.161E+01  4.240E+00 -1.448E-01
   1   13    3     8     4    1.5853E+02 -3.3595E+00   1.6189E+02  0.000E+00  0.000E+00  0.000E+00  1.00601E+03  2.887E+00  4.187E+01  4.266E+00 -2.625E-01
   1   13    2     8     5    1.6189E+02 -2.5092E+00   1.6440E+02  0.000E+00  0.000E+00  0.000E+00  9.99782E+02  2.907E+00  4.215E+01  4.295E+00 -1.947E-01
   1   13    1     8     6    1.6440E+02 -1.9614E+00   1.6636E+02  0.000E+00  0.000E+00  0.000E+00  9.94797E+02  2.922E+00  4.237E+01  2.590E+00 -2.524E-01
   1    8    6     9     1    0.0000E+00  0.0000E+00   0.0000E+00  0.000E+00  0.000E+00  0.000E+00  1.07875E+03  0.000E+00  4.000E+00  0.000E+00  1.000E+00
   1    8    5     9     2    0.0000E+00  0.0000E+00   0.0000E+00  0.000E+00  0.000E+00  0.000E+00  1.07825E+03  0.000E+00  4.000E+00  0.000E+00  1.000E+00





UNSATURATED ZONE PACKAGE VOLUMETRIC BUDGET FOR  TIME STEP    30 STRESS PERIOD   26
  ------------------------------------------------------------------------------



     CUMULATIVE VOLUMES      L**3       RATES FOR THIS TIME STEP      L**3/T
     ------------------                 ------------------------

           IN:                                      IN:
           ---                                      ---
        INFILTRATION =  1038915926.1497          INFILTRATION =           0.8475

          OUT:                                     OUT:
          ----                                     ----
              UZF ET =   863310927.7761                UZF ET =           0.7500
        UZF RECHARGE =      588644.6172          UZF RECHARGE =           0.0747

            IN - OUT =   175016353.7563              IN - OUT =       2.2776E-02

          STORAGE:                                 STORAGE:
          --------                                 --------
      STORAGE CHANGE =   175016830.2280        STORAGE CHANGE =       2.2776E-02

 PERCENT DISCREPANCY IS DIFFERENCE BETWEEN IN-OUT MINUS CHANGE IN STORAGE
 DIVIDED BY THE AVERAGE OF IN AND OUT TIMES 100

 PERCENT DISCREPANCY =          -0.00     PERCENT DISCREPANCY =           0.00






1
  VOLUMETRIC BUDGET FOR AGRICULTURAL FIELDS AT  END OF TIME STEP   30, STRESS PERIOD  26
  ------------------------------------------------------------------------------

     CUMULATIVE VOLUMES      L**3       RATES FOR THIS TIME STEP      L**3/T
     ------------------                 ------------------------

           IN:                                      IN:
           ---                                      ---
               AG WELLS  =   665535360.0000                 AG WELLS  =           0.0000
      DIVERSION SEGMENTS =   317583232.0000        DIVERSION SEGMENTS =           0.0000
           GW IRRIGATION =           0.0000             GW IRRIGATION =           0.0000
           SW IRRIGATION =           0.0000             SW IRRIGATION =           0.0000
        SYSTEM LOSSES GW =           0.0000          SYSTEM LOSSES GW =           0.0000
        SYSTEM LOSSES SW =           0.0000          SYSTEM LOSSES SW =           0.0000

                TOTAL IN =   983118592.0000                  TOTAL IN =           0.0000

          OUT:                                     OUT:
          ----                                     ----
               AG WELLS  =           0.0000                 AG WELLS  =           0.0000
      DIVERSION SEGMENTS =           0.0000        DIVERSION SEGMENTS =           0.0000
           GW IRRIGATION =   665535360.0000             GW IRRIGATION =           0.0000
           SW IRRIGATION =   317589344.0000             SW IRRIGATION =           0.0000
        SYSTEM LOSSES GW =           0.0000          SYSTEM LOSSES GW =           0.0000
        SYSTEM LOSSES SW =           0.0000          SYSTEM LOSSES SW =           0.0000

               TOTAL OUT =   983124736.0000                 TOTAL OUT =           0.0000

                IN - OUT =       -6144.0000                  IN - OUT =           0.0000

     PERCENT DISCREPANCY =          -0.00         PERCENT DISCREPANCY =           0.00



1
  VOLUMETRIC BUDGET FOR ENTIRE MODEL AT END OF TIME STEP   30, STRESS PERIOD  26
  ------------------------------------------------------------------------------

     CUMULATIVE VOLUMES      L**3       RATES FOR THIS TIME STEP      L**3/T
     ------------------                 ------------------------

           IN:                                      IN:
           ---                                      ---
             STORAGE     =   986818048.0000               STORAGE     =           5.4326
       CONSTANT HEAD     =           0.0000         CONSTANT HEAD     =           0.0000
     HEAD DEP BOUNDS     =    18969642.0000       HEAD DEP BOUNDS     =           0.2887
      STREAM LEAKAGE     =   772669120.0000        STREAM LEAKAGE     =          11.5626
        UZF RECHARGE     =      588644.6250          UZF RECHARGE     =       7.4724E-02
               GW ET     =           0.0000                 GW ET     =           0.0000
     SURFACE LEAKAGE     =           0.0000       SURFACE LEAKAGE     =           0.0000
           AG WELLS      =           0.0000             AG WELLS      =           0.0000

                TOTAL IN =  1779045504.0000                  TOTAL IN =          17.3586

          OUT:                                     OUT:
          ----                                     ----
             STORAGE     =   427276480.0000               STORAGE     =           7.4001
       CONSTANT HEAD     =           0.0000         CONSTANT HEAD     =           0.0000
     HEAD DEP BOUNDS     =    18957782.0000       HEAD DEP BOUNDS     =           0.2871
      STREAM LEAKAGE     =   667283776.0000        STREAM LEAKAGE     =           9.6715
        UZF RECHARGE     =           0.0000          UZF RECHARGE     =           0.0000
               GW ET     =           0.0000                 GW ET     =           0.0000
     SURFACE LEAKAGE     =           0.0000       SURFACE LEAKAGE     =           0.0000
           AG WELLS      =   665535360.0000             AG WELLS      =           0.0000

               TOTAL OUT =  1779053440.0000                 TOTAL OUT =          17.3586

                IN - OUT =       -7936.0000                  IN - OUT =       9.5367E-06

     PERCENT DISCREPANCY =          -0.00         PERCENT DISCREPANCY =           0.00






         TIME SUMMARY AT END OF TIME STEP   30 IN STRESS PERIOD   26
                    SECONDS     MINUTES      HOURS       DAYS        YEARS
                    -----------------------------------------------------------
   TIME STEP LENGTH  87667.      1461.1      24.352      1.0147     2.77799E-03
 STRESS PERIOD TIME 2.63000E+06  43833.      730.56      30.440     8.33397E-02
         TOTAL TIME 6.58368E+07 1.09728E+06  18288.      762.00      2.0862    
1
1
                            STRESS PERIOD NO.   27, LENGTH =   2630000.    
                            -----------------------------------------------

                              NUMBER OF TIME STEPS =    30

                               MULTIPLIER FOR DELT =     1.000

                            INITIAL TIME STEP SIZE =   87666.66    

 REUSING NON-PARAMETER GHB CELLS FROM LAST STRESS PERIOD

      2 GHB CELLS

 REUSING STREAM SEGMENT DATA FROM LAST STRESS PERIOD



            AREAL INFILTRATION RATE
 READING ON UNIT   19 WITH FORMAT: (FREE)              

            1           2           3           4           5           6           7           8           9          10
 ........................................................................................................................
   1   1.0000E-10  2.0000E-10   0.000       0.000       0.000       0.000       0.000       0.000       0.000       0.000    
   2   2.0000E-10  1.0000E-10  2.0000E-10   0.000       0.000      8.0000E-10  8.0000E-10  5.0000E-10   0.000       0.000    
   3    0.000      5.0000E-10  1.0000E-10  1.0000E-10  8.0000E-10  8.0000E-10  5.0000E-10  5.0000E-10   0.000       0.000    
   4   8.0000E-10  5.0000E-10  1.0000E-10  1.0000E-10  1.0000E-10  1.0000E-10  1.0000E-10  1.0000E-10  2.0000E-10   0.000    
   5   8.0000E-10  5.0000E-10  1.0000E-10  1.0000E-10  1.0000E-10  1.0000E-10  1.0000E-10  1.0000E-10  1.0000E-10  1.0000E-10
   6   8.0000E-10  5.0000E-10  5.0000E-10  2.0000E-10  2.0000E-10  1.0000E-10  1.0000E-10  1.0000E-10  1.0000E-10  5.0000E-10
   7   8.0000E-10  5.0000E-10  5.0000E-10  2.0000E-10  2.0000E-10  1.0000E-10  1.0000E-10  2.0000E-10  2.0000E-10   0.000    
   8    0.000      5.0000E-10  5.0000E-10  2.0000E-10  2.0000E-10  1.0000E-10  1.0000E-10  2.0000E-10  5.0000E-10   0.000    
   9    0.000      5.0000E-10  5.0000E-10  2.0000E-10  2.0000E-10  1.0000E-10  1.0000E-10  2.0000E-10  5.0000E-10   0.000    
  10    0.000      5.0000E-10  5.0000E-10  2.0000E-10  2.0000E-10  1.0000E-10  1.0000E-10  2.0000E-10  5.0000E-10  8.0000E-10
  11    0.000      1.0000E-10  1.0000E-10  1.0000E-10  1.0000E-10  1.0000E-10  1.0000E-10  2.0000E-10  5.0000E-10   0.000    
  12   1.0000E-10  1.0000E-10  1.0000E-10  1.0000E-10  1.0000E-10  1.0000E-10  1.0000E-10  1.0000E-10  2.0000E-10   0.000    
  13   1.0000E-10  1.0000E-10  2.0000E-10  2.0000E-10  2.0000E-10  2.0000E-10  2.0000E-10  1.0000E-10  1.0000E-10   0.000    
  14    0.000      2.0000E-10  5.0000E-10  5.0000E-10  5.0000E-10  5.0000E-10  5.0000E-10  2.0000E-10  1.0000E-10   0.000    
  15    0.000       0.000      8.0000E-10  8.0000E-10  8.0000E-10  8.0000E-10   0.000       0.000       0.000       0.000    

                  ET RATE =  5.000000E-10

 USING ET EXTINCTION DEPTH FROM PREVIOUS STRESS PERIOD. CURRENT PERIOD IS:      27

 USING EXTINCTION WATER CONTENT FROM PREVIOUS STRESS PERIOD. CURRENT PERIOD IS:      27

 USING AIR ENTRY PRESSURE FROM PREVIOUS STRESS PERIOD. CURRENT PERIOD IS:      27

 USING ROOT PRESSURE HEAD FROM PREVIOUS STRESS PERIOD. CURRENT PERIOD IS:      27

 USING ROOT ACTIVITY FROM PREVIOUS STRESS PERIOD. CURRENT PERIOD IS:      27

 PROCESSING AG STRESS PERIOD DATA

 READING AG STRESS PERIOD DATA

 READING IRRIGATION SEGMENT

 READING IRRIGATION WELL

 READING SUPPLEMENTAL WELL

 END PROCESSING AG STRESS PERIOD DATA OPTIONS
 
 SOLVING FOR HEAD 
                                                   Max.-Head-Change                         Max.-Flux-Residual
  Residual-Control   Outer-Iter.   Inner-Iter.     Column Row Layer    Maximum-Head-Change  Column Row Layer    Maximum-Flux-Residual          L2-NORM 
          0                 1           2             4    7     1       0.1613208434E-01       4    7    1         0.8462803270E+00      0.2046656299E+01
          0                 2           2             4    7     1      -0.1568647257E-02       4    7    1        -0.8462838310E-01      0.1993614029E+00
          0                 3           1             4    7     1       0.1068369700E-03       4    7    1         0.5923985954E-02      0.1389307607E-01
          0                 4           1             4    7     1      -0.4250580427E-05       4    7    1        -0.2422913803E-03      0.5681866651E-03

    ------------------------------------------------
       NWT REQUIRED            4 OUTER ITERATIONS 
       AND A TOTAL OF          6 INNER ITERATIONS.
    ------------------------------------------------

 NO OUTPUT CONTROL FOR STRESS PERIOD   27   TIME STEP    1
 
 SOLVING FOR HEAD 
                                                   Max.-Head-Change                         Max.-Flux-Residual
  Residual-Control   Outer-Iter.   Inner-Iter.     Column Row Layer    Maximum-Head-Change  Column Row Layer    Maximum-Flux-Residual          L2-NORM 
          0                 1           2             4    7     1       0.1597933091E-01       4    7    1         0.8382300043E+00      0.2029766649E+01
          0                 2           2             4    7     1      -0.1555028346E-02       4    7    1        -0.8391296854E-01      0.1977451193E+00
          0                 3           1             4    7     1       0.1059094138E-03       4    7    1         0.5873906719E-02      0.1378044309E-01
          0                 4           1             4    7     1      -0.4213677081E-05       4    7    1        -0.2402431364E-03      0.5635907328E-03

    ------------------------------------------------
       NWT REQUIRED            4 OUTER ITERATIONS 
       AND A TOTAL OF          6 INNER ITERATIONS.
    ------------------------------------------------

 NO OUTPUT CONTROL FOR STRESS PERIOD   27   TIME STEP    2
 
 SOLVING FOR HEAD 
                                                   Max.-Head-Change                         Max.-Flux-Residual
  Residual-Control   Outer-Iter.   Inner-Iter.     Column Row Layer    Maximum-Head-Change  Column Row Layer    Maximum-Flux-Residual          L2-NORM 
          0                 1           2             4    7     1       0.1582400324E-01       4    7    1         0.8302218823E+00      0.2029406655E+01
          0                 2           2             4    7     1      -0.1538688784E-02       4    7    1        -0.8302255033E-01      0.1976800614E+00
          0                 3           1             4    7     1       0.1047966155E-03       4    7    1         0.5811577506E-02      0.1376832119E-01
          0                 4           1             4    7     1      -0.4169401999E-05       4    7    1        -0.2376938623E-03      0.5626317625E-03

    ------------------------------------------------
       NWT REQUIRED            4 OUTER ITERATIONS 
       AND A TOTAL OF          6 INNER ITERATIONS.
    ------------------------------------------------

 NO OUTPUT CONTROL FOR STRESS PERIOD   27   TIME STEP    3
 
 SOLVING FOR HEAD 
                                                   Max.-Head-Change                         Max.-Flux-Residual
  Residual-Control   Outer-Iter.   Inner-Iter.     Column Row Layer    Maximum-Head-Change  Column Row Layer    Maximum-Flux-Residual          L2-NORM 
          0                 1           2             4    7     1       0.1567229713E-01       4    7    1         0.8222119572E+00      0.2011720448E+01
          0                 2           2             4    7     1      -0.1523936063E-02       4    7    1        -0.8222154921E-01      0.1959595405E+00
          0                 3           1             4    7     1       0.1037918766E-03       4    7    1         0.5755507493E-02      0.1364961807E-01
          0                 4           1             4    7     1      -0.4129426703E-05       4    7    1        -0.2354006074E-03      0.5578973502E-03

    ------------------------------------------------
       NWT REQUIRED            4 OUTER ITERATIONS 
       AND A TOTAL OF          6 INNER ITERATIONS.
    ------------------------------------------------

 NO OUTPUT CONTROL FOR STRESS PERIOD   27   TIME STEP    4
 
 SOLVING FOR HEAD 
                                                   Max.-Head-Change                         Max.-Flux-Residual
  Residual-Control   Outer-Iter.   Inner-Iter.     Column Row Layer    Maximum-Head-Change  Column Row Layer    Maximum-Flux-Residual          L2-NORM 
          0                 1           2             4    7     1       0.1552315238E-01       4    7    1         0.8143386213E+00      0.1994648383E+01
          0                 2           2             4    7     1      -0.1509432461E-02       4    7    1        -0.8143420727E-01      0.1942993407E+00
          0                 3           1             4    7     1       0.1028041024E-03       4    7    1         0.5700393612E-02      0.1353483426E-01
          0                 4           1             4    7     1      -0.4090126400E-05       4    7    1        -0.2331464302E-03      0.5531486136E-03

    ------------------------------------------------
       NWT REQUIRED            4 OUTER ITERATIONS 
       AND A TOTAL OF          6 INNER ITERATIONS.
    ------------------------------------------------

 NO OUTPUT CONTROL FOR STRESS PERIOD   27   TIME STEP    5
 
 SOLVING FOR HEAD 
                                                   Max.-Head-Change                         Max.-Flux-Residual
  Residual-Control   Outer-Iter.   Inner-Iter.     Column Row Layer    Maximum-Head-Change  Column Row Layer    Maximum-Flux-Residual          L2-NORM 
          0                 1           2             4    7     1       0.1537623212E-01       4    7    1         0.8065834691E+00      0.1978117889E+01
          0                 2           2             4    7     1      -0.1495145202E-02       4    7    1        -0.8065868394E-01      0.1926923873E+00
          0                 3           1             4    7     1       0.1018310622E-03       4    7    1         0.5646107044E-02      0.1342360781E-01
          0                 4           1             4    7     1      -0.4051412327E-05       4    7    1        -0.2309261151E-03      0.5487040927E-03

    ------------------------------------------------
       NWT REQUIRED            4 OUTER ITERATIONS 
       AND A TOTAL OF          6 INNER ITERATIONS.
    ------------------------------------------------

 NO OUTPUT CONTROL FOR STRESS PERIOD   27   TIME STEP    6
 
 SOLVING FOR HEAD 
                                                   Max.-Head-Change                         Max.-Flux-Residual
  Residual-Control   Outer-Iter.   Inner-Iter.     Column Row Layer    Maximum-Head-Change  Column Row Layer    Maximum-Flux-Residual          L2-NORM 
          0                 1           2             4    7     1       0.1523161676E-01       4    7    1         0.7989509657E+00      0.1962076109E+01
          0                 2           2             4    7     1      -0.1481082109E-02       4    7    1        -0.7989542573E-01      0.1911330431E+00
          0                 3           1             4    7     1       0.1008732879E-03       4    7    1         0.5592679025E-02      0.1331571032E-01
          0                 4           1             4    7     1      -0.4013305782E-05       4    7    1        -0.2287409020E-03      0.5444237873E-03

    ------------------------------------------------
       NWT REQUIRED            4 OUTER ITERATIONS 
       AND A TOTAL OF          6 INNER ITERATIONS.
    ------------------------------------------------

 NO OUTPUT CONTROL FOR STRESS PERIOD   27   TIME STEP    7
 
 SOLVING FOR HEAD 
                                                   Max.-Head-Change                         Max.-Flux-Residual
  Residual-Control   Outer-Iter.   Inner-Iter.     Column Row Layer    Maximum-Head-Change  Column Row Layer    Maximum-Flux-Residual          L2-NORM 
          0                 1           2             4    7     1       0.1508924837E-01       4    7    1         0.7914379708E+00      0.1946470078E+01
          0                 2           2             4    7     1      -0.1467237555E-02       4    7    1        -0.7914411861E-01      0.1896167527E+00
          0                 3           1             4    7     1       0.9993039624E-04       4    7    1         0.5540087566E-02      0.1321062322E-01

    ------------------------------------------------
       NWT REQUIRED            3 OUTER ITERATIONS 
       AND A TOTAL OF          5 INNER ITERATIONS.
    ------------------------------------------------

 NO OUTPUT CONTROL FOR STRESS PERIOD   27   TIME STEP    8
 
 SOLVING FOR HEAD 
                                                   Max.-Head-Change                         Max.-Flux-Residual
  Residual-Control   Outer-Iter.   Inner-Iter.     Column Row Layer    Maximum-Head-Change  Column Row Layer    Maximum-Flux-Residual          L2-NORM 
          0                 1           2             4    7     1       0.1494901523E-01       4    7    1         0.7840387749E+00      0.1931250371E+01
          0                 2           2             4    7     1      -0.1453600653E-02       4    7    1        -0.7840419162E-01      0.1881377323E+00
          0                 3           1             4    7     1       0.9900164642E-04       4    7    1         0.5488292722E-02      0.1310798303E-01

    ------------------------------------------------
       NWT REQUIRED            3 OUTER ITERATIONS 
       AND A TOTAL OF          5 INNER ITERATIONS.
    ------------------------------------------------

 NO OUTPUT CONTROL FOR STRESS PERIOD   27   TIME STEP    9
 
 SOLVING FOR HEAD 
                                                   Max.-Head-Change                         Max.-Flux-Residual
  Residual-Control   Outer-Iter.   Inner-Iter.     Column Row Layer    Maximum-Head-Change  Column Row Layer    Maximum-Flux-Residual          L2-NORM 
          0                 1           2             4    7     1       0.1481078650E-01       4    7    1         0.7767457224E+00      0.1916391105E+01
          0                 2           2             4    7     1      -0.1440158680E-02       4    7    1        -0.7767487916E-01      0.1866940610E+00
          0                 3           1             4    7     1       0.9808617231E-04       4    7    1         0.5437240907E-02      0.1300803323E-01

    ------------------------------------------------
       NWT REQUIRED            3 OUTER ITERATIONS 
       AND A TOTAL OF          5 INNER ITERATIONS.
    ------------------------------------------------

 NO OUTPUT CONTROL FOR STRESS PERIOD   27   TIME STEP   10
 
 SOLVING FOR HEAD 
                                                   Max.-Head-Change                         Max.-Flux-Residual
  Residual-Control   Outer-Iter.   Inner-Iter.     Column Row Layer    Maximum-Head-Change  Column Row Layer    Maximum-Flux-Residual          L2-NORM 
          0                 1           2             4    7     1       0.1467478526E-01       4    7    1         0.7695712213E+00      0.1901870911E+01
          0                 2           2             4    7     1      -0.1426933352E-02       4    7    1        -0.7695742209E-01      0.1852837029E+00
          0                 3           1             4    7     1       0.9718545171E-04       4    7    1         0.5387018952E-02      0.1291003020E-01

    ------------------------------------------------
       NWT REQUIRED            3 OUTER ITERATIONS 
       AND A TOTAL OF          5 INNER ITERATIONS.
    ------------------------------------------------

 NO OUTPUT CONTROL FOR STRESS PERIOD   27   TIME STEP   11
 
 SOLVING FOR HEAD 
                                                   Max.-Head-Change                         Max.-Flux-Residual
  Residual-Control   Outer-Iter.   Inner-Iter.     Column Row Layer    Maximum-Head-Change  Column Row Layer    Maximum-Flux-Residual          L2-NORM 
          0                 1           2             4    7     1       0.1454081766E-01       4    7    1         0.7625049015E+00      0.1887649344E+01
          0                 2           2             4    7     1      -0.1413905812E-02       4    7    1        -0.7625078333E-01      0.1839027918E+00
          0                 3           1             4    7     1       0.9629820077E-04       4    7    1         0.5337554284E-02      0.1281422965E-01

    ------------------------------------------------
       NWT REQUIRED            3 OUTER ITERATIONS 
       AND A TOTAL OF          5 INNER ITERATIONS.
    ------------------------------------------------

 NO OUTPUT CONTROL FOR STRESS PERIOD   27   TIME STEP   12
 
 SOLVING FOR HEAD 
                                                   Max.-Head-Change                         Max.-Flux-Residual
  Residual-Control   Outer-Iter.   Inner-Iter.     Column Row Layer    Maximum-Head-Change  Column Row Layer    Maximum-Flux-Residual          L2-NORM 
          0                 1           2             4    7     1       0.1440870237E-01       4    7    1         0.7555367117E+00      0.1873709201E+01
          0                 2           2             4    7     1      -0.1401058406E-02       4    7    1        -0.7555395777E-01      0.1825491811E+00
          0                 3           1             4    7     1       0.9542321803E-04       4    7    1         0.5288776547E-02      0.1272013468E-01

    ------------------------------------------------
       NWT REQUIRED            3 OUTER ITERATIONS 
       AND A TOTAL OF          5 INNER ITERATIONS.
    ------------------------------------------------

 NO OUTPUT CONTROL FOR STRESS PERIOD   27   TIME STEP   13
 
 SOLVING FOR HEAD 
                                                   Max.-Head-Change                         Max.-Flux-Residual
  Residual-Control   Outer-Iter.   Inner-Iter.     Column Row Layer    Maximum-Head-Change  Column Row Layer    Maximum-Flux-Residual          L2-NORM 
          0                 1           2             4    7     1       0.1427866701E-01       4    7    1         0.7486791879E+00      0.1860035809E+01
          0                 2           2             4    7     1      -0.1388413281E-02       4    7    1        -0.7486819899E-01      0.1812216659E+00
          0                 3           1             4    7     1       0.9456201097E-04       4    7    1         0.5240773461E-02      0.1262781779E-01

    ------------------------------------------------
       NWT REQUIRED            3 OUTER ITERATIONS 
       AND A TOTAL OF          5 INNER ITERATIONS.
    ------------------------------------------------

 NO OUTPUT CONTROL FOR STRESS PERIOD   27   TIME STEP   14
 
 SOLVING FOR HEAD 
                                                   Max.-Head-Change                         Max.-Flux-Residual
  Residual-Control   Outer-Iter.   Inner-Iter.     Column Row Layer    Maximum-Head-Change  Column Row Layer    Maximum-Flux-Residual          L2-NORM 
          0                 1           2             4    7     1       0.1415052684E-01       4    7    1         0.7419221944E+00      0.1846605883E+01
          0                 2           2             4    7     1      -0.1375952479E-02       4    7    1        -0.7419249345E-01      0.1799182359E+00
          0                 3           1             4    7     1       0.9371335671E-04       4    7    1         0.5193474131E-02      0.1253733797E-01

    ------------------------------------------------
       NWT REQUIRED            3 OUTER ITERATIONS 
       AND A TOTAL OF          5 INNER ITERATIONS.
    ------------------------------------------------

 NO OUTPUT CONTROL FOR STRESS PERIOD   27   TIME STEP   15
 
 SOLVING FOR HEAD 
                                                   Max.-Head-Change                         Max.-Flux-Residual
  Residual-Control   Outer-Iter.   Inner-Iter.     Column Row Layer    Maximum-Head-Change  Column Row Layer    Maximum-Flux-Residual          L2-NORM 
          0                 1           2             4    7     1       0.1402423762E-01       4    7    1         0.7352634650E+00      0.1833404689E+01
          0                 2           2             4    7     1      -0.1363671687E-02       4    7    1        -0.7352661447E-01      0.1786370640E+00
          0                 3           1             4    7     1       0.9287696130E-04       4    7    1         0.5146862624E-02      0.1244825248E-01

    ------------------------------------------------
       NWT REQUIRED            3 OUTER ITERATIONS 
       AND A TOTAL OF          5 INNER ITERATIONS.
    ------------------------------------------------

 NO OUTPUT CONTROL FOR STRESS PERIOD   27   TIME STEP   16
 
 SOLVING FOR HEAD 
                                                   Max.-Head-Change                         Max.-Flux-Residual
  Residual-Control   Outer-Iter.   Inner-Iter.     Column Row Layer    Maximum-Head-Change  Column Row Layer    Maximum-Flux-Residual          L2-NORM 
          0                 1           2             4    7     1       0.1389975414E-01       4    7    1         0.7287007066E+00      0.1820421680E+01
          0                 2           2             4    7     1      -0.1351566506E-02       4    7    1        -0.7287033276E-01      0.1773772482E+00
          0                 3           1             4    7     1       0.9205252593E-04       4    7    1         0.5100922950E-02      0.1236064074E-01

    ------------------------------------------------
       NWT REQUIRED            3 OUTER ITERATIONS 
       AND A TOTAL OF          5 INNER ITERATIONS.
    ------------------------------------------------

 NO OUTPUT CONTROL FOR STRESS PERIOD   27   TIME STEP   17
 
 SOLVING FOR HEAD 
                                                   Max.-Head-Change                         Max.-Flux-Residual
  Residual-Control   Outer-Iter.   Inner-Iter.     Column Row Layer    Maximum-Head-Change  Column Row Layer    Maximum-Flux-Residual          L2-NORM 
          0                 1           2             4    7     1       0.1377703871E-01       4    7    1         0.7222315740E+00      0.1807651642E+01
          0                 2           2             4    7     1      -0.1339633262E-02       4    7    1        -0.7222341378E-01      0.1761381402E+00
          0                 3           1             4    7     1       0.9123979997E-04       4    7    1         0.5055638645E-02      0.1227439775E-01

    ------------------------------------------------
       NWT REQUIRED            3 OUTER ITERATIONS 
       AND A TOTAL OF          5 INNER ITERATIONS.
    ------------------------------------------------

 NO OUTPUT CONTROL FOR STRESS PERIOD   27   TIME STEP   18
 
 SOLVING FOR HEAD 
                                                   Max.-Head-Change                         Max.-Flux-Residual
  Residual-Control   Outer-Iter.   Inner-Iter.     Column Row Layer    Maximum-Head-Change  Column Row Layer    Maximum-Flux-Residual          L2-NORM 
          0                 1           2             4    7     1       0.1365605442E-01       4    7    1         0.7158541143E+00      0.1795078530E+01
          0                 2           2             4    7     1      -0.1327868384E-02       4    7    1        -0.7158566227E-01      0.1749184751E+00
          0                 3           1             4    7     1       0.9043854060E-04       4    7    1         0.5010996088E-02      0.1218960948E-01

    ------------------------------------------------
       NWT REQUIRED            3 OUTER ITERATIONS 
       AND A TOTAL OF          5 INNER ITERATIONS.
    ------------------------------------------------

 NO OUTPUT CONTROL FOR STRESS PERIOD   27   TIME STEP   19
 
 SOLVING FOR HEAD 
                                                   Max.-Head-Change                         Max.-Flux-Residual
  Residual-Control   Outer-Iter.   Inner-Iter.     Column Row Layer    Maximum-Head-Change  Column Row Layer    Maximum-Flux-Residual          L2-NORM 
          0                 1           2             4    7     1       0.1353675829E-01       4    7    1         0.7095664130E+00      0.1782688015E+01
          0                 2           2             4    7     1      -0.1316267680E-02       4    7    1        -0.7095688673E-01      0.1737166424E+00
          0                 3           1             4    7     1       0.8964846191E-04       4    7    1         0.4966981832E-02      0.1210597122E-01

    ------------------------------------------------
       NWT REQUIRED            3 OUTER ITERATIONS 
       AND A TOTAL OF          5 INNER ITERATIONS.
    ------------------------------------------------

 NO OUTPUT CONTROL FOR STRESS PERIOD   27   TIME STEP   20
 
 SOLVING FOR HEAD 
                                                   Max.-Head-Change                         Max.-Flux-Residual
  Residual-Control   Outer-Iter.   Inner-Iter.     Column Row Layer    Maximum-Head-Change  Column Row Layer    Maximum-Flux-Residual          L2-NORM 
          0                 1           2             4    7     1       0.1341924827E-01       4    7    1         0.7033735556E+00      0.1770483501E+01
          0                 2           2             4    7     1      -0.1304840689E-02       4    7    1        -0.7033759574E-01      0.1725332086E+00
          0                 3           1             4    7     1       0.8887021321E-04       4    7    1         0.4923631498E-02      0.1202365320E-01

    ------------------------------------------------
       NWT REQUIRED            3 OUTER ITERATIONS 
       AND A TOTAL OF          5 INNER ITERATIONS.
    ------------------------------------------------

 NO OUTPUT CONTROL FOR STRESS PERIOD   27   TIME STEP   21
 
 SOLVING FOR HEAD 
                                                   Max.-Head-Change                         Max.-Flux-Residual
  Residual-Control   Outer-Iter.   Inner-Iter.     Column Row Layer    Maximum-Head-Change  Column Row Layer    Maximum-Flux-Residual          L2-NORM 
          0                 1           2             4    7     1       0.1330334597E-01       4    7    1         0.6972659925E+00      0.1758449253E+01
          0                 2           2             4    7     1      -0.1293570041E-02       4    7    1        -0.6972683434E-01      0.1713661163E+00
          0                 3           1             4    7     1       0.8810261245E-04       4    7    1         0.4880878239E-02      0.1194238124E-01

    ------------------------------------------------
       NWT REQUIRED            3 OUTER ITERATIONS 
       AND A TOTAL OF          5 INNER ITERATIONS.
    ------------------------------------------------

 NO OUTPUT CONTROL FOR STRESS PERIOD   27   TIME STEP   22
 
 SOLVING FOR HEAD 
                                                   Max.-Head-Change                         Max.-Flux-Residual
  Residual-Control   Outer-Iter.   Inner-Iter.     Column Row Layer    Maximum-Head-Change  Column Row Layer    Maximum-Flux-Residual          L2-NORM 
          0                 1           2             4    7     1       0.1318902036E-01       4    7    1         0.6912417897E+00      0.1746585973E+01
          0                 2           2             4    7     1      -0.1282452725E-02       4    7    1        -0.6912440907E-01      0.1702158568E+00
          0                 3           1             4    7     1       0.8734545371E-04       4    7    1         0.4838708475E-02      0.1186240507E-01

    ------------------------------------------------
       NWT REQUIRED            3 OUTER ITERATIONS 
       AND A TOTAL OF          5 INNER ITERATIONS.
    ------------------------------------------------

 NO OUTPUT CONTROL FOR STRESS PERIOD   27   TIME STEP   23
 
 SOLVING FOR HEAD 
                                                   Max.-Head-Change                         Max.-Flux-Residual
  Residual-Control   Outer-Iter.   Inner-Iter.     Column Row Layer    Maximum-Head-Change  Column Row Layer    Maximum-Flux-Residual          L2-NORM 
          0                 1           2             4    7     1       0.1307637070E-01       4    7    1         0.6853066516E+00      0.1734892701E+01
          0                 2           2             4    7     1      -0.1271498399E-02       4    7    1        -0.6853089042E-01      0.1690821310E+00
          0                 3           1             4    7     1       0.8659939577E-04       4    7    1         0.4797162203E-02      0.1178343229E-01

    ------------------------------------------------
       NWT REQUIRED            3 OUTER ITERATIONS 
       AND A TOTAL OF          5 INNER ITERATIONS.
    ------------------------------------------------

 NO OUTPUT CONTROL FOR STRESS PERIOD   27   TIME STEP   24
 
 SOLVING FOR HEAD 
                                                   Max.-Head-Change                         Max.-Flux-Residual
  Residual-Control   Outer-Iter.   Inner-Iter.     Column Row Layer    Maximum-Head-Change  Column Row Layer    Maximum-Flux-Residual          L2-NORM 
          0                 1           2             4    7     1       0.1296522430E-01       4    7    1         0.6794510965E+00      0.1723348617E+01
          0                 2           2             4    7     1      -0.1260690263E-02       4    7    1        -0.6794533019E-01      0.1679629358E+00
          0                 3           1             4    7     1       0.8586329361E-04       4    7    1         0.4756173014E-02      0.1170549417E-01

    ------------------------------------------------
       NWT REQUIRED            3 OUTER ITERATIONS 
       AND A TOTAL OF          5 INNER ITERATIONS.
    ------------------------------------------------

 NO OUTPUT CONTROL FOR STRESS PERIOD   27   TIME STEP   25
 
 SOLVING FOR HEAD 
                                                   Max.-Head-Change                         Max.-Flux-Residual
  Residual-Control   Outer-Iter.   Inner-Iter.     Column Row Layer    Maximum-Head-Change  Column Row Layer    Maximum-Flux-Residual          L2-NORM 
          0                 1           2             4    7     1       0.1285555049E-01       4    7    1         0.6736734841E+00      0.1711953736E+01
          0                 2           2             4    7     1      -0.1250025345E-02       4    7    1        -0.6736756437E-01      0.1668585718E+00
          0                 3           1             4    7     1       0.8513694488E-04       4    7    1         0.4715729428E-02      0.1162868192E-01

    ------------------------------------------------
       NWT REQUIRED            3 OUTER ITERATIONS 
       AND A TOTAL OF          5 INNER ITERATIONS.
    ------------------------------------------------

 NO OUTPUT CONTROL FOR STRESS PERIOD   27   TIME STEP   26
 
 SOLVING FOR HEAD 
                                                   Max.-Head-Change                         Max.-Flux-Residual
  Residual-Control   Outer-Iter.   Inner-Iter.     Column Row Layer    Maximum-Head-Change  Column Row Layer    Maximum-Flux-Residual          L2-NORM 
          0                 1           2             4    7     1       0.1274731916E-01       4    7    1         0.6679722250E+00      0.1700714946E+01
          0                 2           2             4    7     1      -0.1239500697E-02       4    7    1        -0.6679743399E-01      0.1657692230E+00
          0                 3           1             4    7     1       0.8442014982E-04       4    7    1         0.4675820339E-02      0.1155284602E-01

    ------------------------------------------------
       NWT REQUIRED            3 OUTER ITERATIONS 
       AND A TOTAL OF          5 INNER ITERATIONS.
    ------------------------------------------------

 NO OUTPUT CONTROL FOR STRESS PERIOD   27   TIME STEP   27
 
 SOLVING FOR HEAD 
                                                   Max.-Head-Change                         Max.-Flux-Residual
  Residual-Control   Outer-Iter.   Inner-Iter.     Column Row Layer    Maximum-Head-Change  Column Row Layer    Maximum-Flux-Residual          L2-NORM 
          0                 1           2             4    7     1       0.1264063296E-01       4    7    1         0.6623530732E+00      0.1689616042E+01
          0                 2           2             4    7     1      -0.1229126314E-02       4    7    1        -0.6623551446E-01      0.1646934953E+00
          0                 3           1             4    7     1       0.8371358792E-04       4    7    1         0.4636485973E-02      0.1147810542E-01

    ------------------------------------------------
       NWT REQUIRED            3 OUTER ITERATIONS 
       AND A TOTAL OF          5 INNER ITERATIONS.
    ------------------------------------------------

 NO OUTPUT CONTROL FOR STRESS PERIOD   27   TIME STEP   28
 
 SOLVING FOR HEAD 
                                                   Max.-Head-Change                         Max.-Flux-Residual
  Residual-Control   Outer-Iter.   Inner-Iter.     Column Row Layer    Maximum-Head-Change  Column Row Layer    Maximum-Flux-Residual          L2-NORM 
          0                 1           2             4    7     1       0.1253545951E-01       4    7    1         0.6568140360E+00      0.1678664380E+01
          0                 2           2             4    7     1      -0.1218899047E-02       4    7    1        -0.6568160651E-01      0.1636321700E+00
          0                 3           1             4    7     1       0.8301704582E-04       4    7    1         0.4597712467E-02      0.1140405978E-01

    ------------------------------------------------
       NWT REQUIRED            3 OUTER ITERATIONS 
       AND A TOTAL OF          5 INNER ITERATIONS.
    ------------------------------------------------

 NO OUTPUT CONTROL FOR STRESS PERIOD   27   TIME STEP   29
 
 SOLVING FOR HEAD 
                                                   Max.-Head-Change                         Max.-Flux-Residual
  Residual-Control   Outer-Iter.   Inner-Iter.     Column Row Layer    Maximum-Head-Change  Column Row Layer    Maximum-Flux-Residual          L2-NORM 
          0                 1           2             4    7     1       0.1243149653E-01       4    7    1         0.6513388026E+00      0.1667845131E+01
          0                 2           2             4    7     1      -0.1208789501E-02       4    7    1        -0.6513407904E-01      0.1625839156E+00
          0                 3           1             4    7     1       0.8232852055E-04       4    7    1         0.4559385573E-02      0.1133111844E-01

    ------------------------------------------------
       NWT REQUIRED            3 OUTER ITERATIONS 
       AND A TOTAL OF          5 INNER ITERATIONS.
    ------------------------------------------------

 NO OUTPUT CONTROL FOR STRESS PERIOD   27   TIME STEP   30



 STREAM LISTING     PERIOD     27   STEP       30

 LAYER ROW COL. STREAM  RCH.  FLOW INTO     FLOW TO   FLOW OUT OF   OVRLND.     DIRECT     STREAM       STREAM     STREAM     STREAM   STREAMBED  STREAMBED
                SEG.NO.  NO.  STRM. RCH.    AQUIFER    STRM. RCH.    RUNOFF     PRECIP       ET          HEAD       DEPTH      WIDTH   CONDCTNC.   GRADIENT

   1    1    1     1     1    1.5750E+01  1.9239E-01   1.5557E+01  0.000E+00  0.000E+00  0.000E+00  1.09407E+03  1.025E+00  1.062E+01  4.780E-02  1.342E+00
   1    2    2     1     2    1.5557E+01  2.9659E-01   1.5261E+01  0.000E+00  0.000E+00  0.000E+00  1.08908E+03  1.020E+00  1.054E+01  7.378E-02  1.340E+00
   1    3    3     1     3    1.5261E+01  2.5163E-01   1.5009E+01  0.000E+00  0.000E+00  0.000E+00  1.08343E+03  1.015E+00  1.045E+01  6.268E-02  1.338E+00
   1    3    4     1     4    1.5009E+01  2.3063E-01   1.4778E+01  0.000E+00  0.000E+00  0.000E+00  1.07842E+03  1.010E+00  1.036E+01  5.751E-02  1.337E+00
   1    4    5     2     1    1.2778E+01  2.9653E-01   1.2482E+01  0.000E+00  0.000E+00  0.000E+00  1.07274E+03  8.017E-01  1.200E+01  7.800E-02  1.267E+00
   1    5    6     2     2    1.2482E+01  2.2750E-01   1.2254E+01  0.000E+00  0.000E+00  0.000E+00  1.06730E+03  7.916E-01  1.200E+01  6.000E-02  1.264E+00
   1    6    6     2     3    1.2254E+01  2.2697E-01   1.2027E+01  0.000E+00  0.000E+00  0.000E+00  1.06258E+03  7.829E-01  1.200E+01  6.000E-02  1.261E+00
   1    7    6     2     4    1.2027E+01  2.2644E-01   1.1801E+01  0.000E+00  0.000E+00  0.000E+00  1.05785E+03  7.741E-01  1.200E+01  6.000E-02  1.258E+00
   1    8    6     2     5    1.1801E+01  2.2591E-01   1.1575E+01  0.000E+00  0.000E+00  0.000E+00  1.05312E+03  7.652E-01  1.200E+01  6.000E-02  1.255E+00
   1    3    5     3     1    2.0000E+00  2.8252E-01   1.7175E+00  0.000E+00  0.000E+00  0.000E+00  1.07555E+03  1.909E+00  9.636E+00  7.227E-02  1.955E+00
   1    3    6     3     2    1.7175E+00  2.4905E-01   1.4684E+00  0.000E+00  0.000E+00  0.000E+00  1.07264E+03  1.727E+00  8.909E+00  6.682E-02  1.864E+00
   1    3    7     3     3    1.4684E+00  1.9718E-01   1.2712E+00  0.000E+00  0.000E+00  0.000E+00  1.06987E+03  1.555E+00  8.218E+00  5.547E-02  1.777E+00
   1    4    8     3     4    1.2712E+00  2.2567E-01   1.0456E+00  0.000E+00  0.000E+00  0.000E+00  1.06682E+03  1.364E+00  7.455E+00  6.709E-02  1.682E+00
   1    5    8     3     5    1.0456E+00  1.5790E-01   8.8768E-01  0.000E+00  0.000E+00  0.000E+00  1.06362E+03  1.164E+00  6.655E+00  4.991E-02  1.582E+00
   1    6    8     3     6    8.8768E-01  5.5980E-02   8.3170E-01  0.000E+00  0.000E+00  0.000E+00  1.06158E+03  1.036E+00  6.145E+00  1.844E-02  1.518E+00
   1    5   10     4     1    1.0000E+01  9.0919E-02   9.9091E+00  0.000E+00  0.000E+00  0.000E+00  1.07836E+03  6.368E-01  1.000E+01  2.500E-02  1.212E+00
   1    5    9     4     2    9.9091E+00  1.8158E-01   9.7275E+00  0.000E+00  0.000E+00  0.000E+00  1.07154E+03  6.315E-01  1.000E+01  5.000E-02  1.211E+00
   1    6    8     4     3    9.7275E+00  1.2689E-01   9.6006E+00  0.000E+00  0.000E+00  0.000E+00  1.06381E+03  6.256E-01  1.000E+01  3.500E-02  1.209E+00
   1    6    8     5     1    1.0432E+01  2.2686E-01   1.0205E+01  0.000E+00  0.000E+00  0.000E+00  1.05868E+03  6.790E-01  1.542E+01  6.166E-02  1.226E+00
   1    7    7     5     2    1.0205E+01  2.7894E-01   9.9265E+00  0.000E+00  0.000E+00  0.000E+00  1.05417E+03  6.732E-01  1.519E+01  7.594E-02  1.224E+00
   1    8    7     5     3    9.9265E+00  1.9221E-01   9.7343E+00  0.000E+00  0.000E+00  0.000E+00  1.04992E+03  6.676E-01  1.497E+01  5.241E-02  1.223E+00
   1    8    6     5     4    9.7343E+00  1.3577E-01   9.5985E+00  0.000E+00  0.000E+00  0.000E+00  1.04691E+03  6.637E-01  1.482E+01  3.706E-02  1.221E+00
   1    9    6     6     1    2.1173E+01  2.4608E-01   2.0927E+01  0.000E+00  0.000E+00  0.000E+00  1.04383E+03  1.101E+00  1.200E+01  6.000E-02  1.367E+00
   1   10    7     6     2    2.0927E+01  2.4562E-01   2.0682E+01  0.000E+00  0.000E+00  0.000E+00  1.03928E+03  1.094E+00  1.200E+01  6.000E-02  1.365E+00
   1   11    7     6     3    2.0682E+01  2.4515E-01   2.0437E+01  0.000E+00  0.000E+00  0.000E+00  1.03472E+03  1.086E+00  1.200E+01  6.000E-02  1.362E+00
   1   12    7     6     4    2.0437E+01  2.4468E-01   2.0192E+01  0.000E+00  0.000E+00  0.000E+00  1.03017E+03  1.078E+00  1.200E+01  6.000E-02  1.359E+00
   1   13    7     6     5    2.0192E+01  8.4792E-03   2.0183E+01  0.000E+00  0.000E+00  0.000E+00  1.02698E+03  1.074E+00  1.200E+01  2.400E-02  1.178E-01
   1   14    9     7     1    1.5000E+02  1.3802E+00   1.4862E+02  0.000E+00  0.000E+00  0.000E+00  1.03987E+03  2.288E+00  5.529E+01  5.593E-01  8.226E-01
   1   13    8     7     2    1.4862E+02  1.9740E+00   1.4665E+02  0.000E+00  0.000E+00  0.000E+00  1.03478E+03  2.279E+00  5.525E+01  6.147E-01  1.070E+00
   1   13    7     7     3    1.4665E+02  1.7077E+00   1.4494E+02  0.000E+00  0.000E+00  0.000E+00  1.02969E+03  2.269E+00  5.521E+01  5.584E-01  1.019E+00
   1   13    6     8     1    1.6512E+02  1.1288E+00   1.6399E+02  0.000E+00  0.000E+00  0.000E+00  1.02479E+03  2.916E+00  4.229E+01  4.309E-01  8.732E-01
   1   13    5     8     2    1.6399E+02  3.7239E-01   1.6362E+02  0.000E+00  0.000E+00  0.000E+00  1.01854E+03  2.911E+00  4.222E+01  4.302E-01  2.885E-01
   1   13    4     8     3    1.6362E+02 -1.7629E+00   1.6538E+02  0.000E+00  0.000E+00  0.000E+00  1.01229E+03  2.916E+00  4.228E+01  4.309E+00 -1.364E-01
   1   13    3     8     4    1.6538E+02 -3.3141E+00   1.6870E+02  0.000E+00  0.000E+00  0.000E+00  1.00606E+03  2.933E+00  4.253E+01  4.334E+00 -2.549E-01
   1   13    2     8     5    1.6870E+02 -2.4791E+00   1.7118E+02  0.000E+00  0.000E+00  0.000E+00  9.99827E+02  2.952E+00  4.280E+01  4.362E+00 -1.895E-01
   1   13    1     8     6    1.7118E+02 -1.9371E+00   1.7311E+02  0.000E+00  0.000E+00  0.000E+00  9.94841E+02  2.966E+00  4.301E+01  2.630E+00 -2.455E-01
   1    8    6     9     1    0.0000E+00  0.0000E+00   0.0000E+00  0.000E+00  0.000E+00  0.000E+00  1.07875E+03  0.000E+00  4.000E+00  0.000E+00  1.000E+00
   1    8    5     9     2    0.0000E+00  0.0000E+00   0.0000E+00  0.000E+00  0.000E+00  0.000E+00  1.07825E+03  0.000E+00  4.000E+00  0.000E+00  1.000E+00





UNSATURATED ZONE PACKAGE VOLUMETRIC BUDGET FOR  TIME STEP    30 STRESS PERIOD   27
  ------------------------------------------------------------------------------



     CUMULATIVE VOLUMES      L**3       RATES FOR THIS TIME STEP      L**3/T
     ------------------                 ------------------------

           IN:                                      IN:
           ---                                      ---
        INFILTRATION =  1041144851.0224          INFILTRATION =           0.8475

          OUT:                                     OUT:
          ----                                     ----
              UZF ET =   865283427.6606                UZF ET =           0.7500
        UZF RECHARGE =      763731.6885          UZF RECHARGE =           0.0598

            IN - OUT =   175097691.6733              IN - OUT =       3.7738E-02

          STORAGE:                                 STORAGE:
          --------                                 --------
      STORAGE CHANGE =   175098168.1671        STORAGE CHANGE =       3.7738E-02

 PERCENT DISCREPANCY IS DIFFERENCE BETWEEN IN-OUT MINUS CHANGE IN STORAGE
 DIVIDED BY THE AVERAGE OF IN AND OUT TIMES 100

 PERCENT DISCREPANCY =          -0.00     PERCENT DISCREPANCY =           0.00






1
  VOLUMETRIC BUDGET FOR AGRICULTURAL FIELDS AT  END OF TIME STEP   30, STRESS PERIOD  27
  ------------------------------------------------------------------------------

     CUMULATIVE VOLUMES      L**3       RATES FOR THIS TIME STEP      L**3/T
     ------------------                 ------------------------

           IN:                                      IN:
           ---                                      ---
               AG WELLS  =   665535360.0000                 AG WELLS  =           0.0000
      DIVERSION SEGMENTS =   317583232.0000        DIVERSION SEGMENTS =           0.0000
           GW IRRIGATION =           0.0000             GW IRRIGATION =           0.0000
           SW IRRIGATION =           0.0000             SW IRRIGATION =           0.0000
        SYSTEM LOSSES GW =           0.0000          SYSTEM LOSSES GW =           0.0000
        SYSTEM LOSSES SW =           0.0000          SYSTEM LOSSES SW =           0.0000

                TOTAL IN =   983118592.0000                  TOTAL IN =           0.0000

          OUT:                                     OUT:
          ----                                     ----
               AG WELLS  =           0.0000                 AG WELLS  =           0.0000
      DIVERSION SEGMENTS =           0.0000        DIVERSION SEGMENTS =           0.0000
           GW IRRIGATION =   665535360.0000             GW IRRIGATION =           0.0000
           SW IRRIGATION =   317589344.0000             SW IRRIGATION =           0.0000
        SYSTEM LOSSES GW =           0.0000          SYSTEM LOSSES GW =           0.0000
        SYSTEM LOSSES SW =           0.0000          SYSTEM LOSSES SW =           0.0000

               TOTAL OUT =   983124736.0000                 TOTAL OUT =           0.0000

                IN - OUT =       -6144.0000                  IN - OUT =           0.0000

     PERCENT DISCREPANCY =          -0.00         PERCENT DISCREPANCY =           0.00



1
  VOLUMETRIC BUDGET FOR ENTIRE MODEL AT END OF TIME STEP   30, STRESS PERIOD  27
  ------------------------------------------------------------------------------

     CUMULATIVE VOLUMES      L**3       RATES FOR THIS TIME STEP      L**3/T
     ------------------                 ------------------------

           IN:                                      IN:
           ---                                      ---
             STORAGE     =   998697984.0000               STORAGE     =           4.0293
       CONSTANT HEAD     =           0.0000         CONSTANT HEAD     =           0.0000
     HEAD DEP BOUNDS     =    19729032.0000       HEAD DEP BOUNDS     =           0.2888
      STREAM LEAKAGE     =   804448896.0000        STREAM LEAKAGE     =          12.1291
        UZF RECHARGE     =      763731.8125          UZF RECHARGE     =       5.9762E-02
               GW ET     =           0.0000                 GW ET     =           0.0000
     SURFACE LEAKAGE     =           0.0000       SURFACE LEAKAGE     =           0.0000
           AG WELLS      =           0.0000             AG WELLS      =           0.0000

                TOTAL IN =  1823639680.0000                  TOTAL IN =          16.5070

          OUT:                                     OUT:
          ----                                     ----
             STORAGE     =   446395392.0000               STORAGE     =           6.7264
       CONSTANT HEAD     =           0.0000         CONSTANT HEAD     =           0.0000
     HEAD DEP BOUNDS     =    19714106.0000       HEAD DEP BOUNDS     =           0.2880
      STREAM LEAKAGE     =   692004032.0000        STREAM LEAKAGE     =           9.4932
        UZF RECHARGE     =           0.0000          UZF RECHARGE     =           0.0000
               GW ET     =           0.0000                 GW ET     =           0.0000
     SURFACE LEAKAGE     =           0.0000       SURFACE LEAKAGE     =           0.0000
           AG WELLS      =   665535360.0000             AG WELLS      =           0.0000

               TOTAL OUT =  1823648896.0000                 TOTAL OUT =          16.5076

                IN - OUT =       -9216.0000                  IN - OUT =      -6.1226E-04

     PERCENT DISCREPANCY =          -0.00         PERCENT DISCREPANCY =          -0.00






         TIME SUMMARY AT END OF TIME STEP   30 IN STRESS PERIOD   27
                    SECONDS     MINUTES      HOURS       DAYS        YEARS
                    -----------------------------------------------------------
   TIME STEP LENGTH  87667.      1461.1      24.352      1.0147     2.77799E-03
 STRESS PERIOD TIME 2.63000E+06  43833.      730.56      30.440     8.33397E-02
         TOTAL TIME 6.84668E+07 1.14111E+06  19019.      792.44      2.1696    
1
1
                            STRESS PERIOD NO.   28, LENGTH =   2630000.    
                            -----------------------------------------------

                              NUMBER OF TIME STEPS =    30

                               MULTIPLIER FOR DELT =     1.000

                            INITIAL TIME STEP SIZE =   87666.66    

 REUSING NON-PARAMETER GHB CELLS FROM LAST STRESS PERIOD

      2 GHB CELLS

 REUSING STREAM SEGMENT DATA FROM LAST STRESS PERIOD



            AREAL INFILTRATION RATE
 READING ON UNIT   19 WITH FORMAT: (FREE)              

            1           2           3           4           5           6           7           8           9          10
 ........................................................................................................................
   1   1.0000E-10  2.0000E-10   0.000       0.000       0.000       0.000       0.000       0.000       0.000       0.000    
   2   2.0000E-10  1.0000E-10  2.0000E-10   0.000       0.000      8.0000E-10  8.0000E-10  5.0000E-10   0.000       0.000    
   3    0.000      5.0000E-10  1.0000E-10  1.0000E-10  8.0000E-10  8.0000E-10  5.0000E-10  5.0000E-10   0.000       0.000    
   4   8.0000E-10  5.0000E-10  1.0000E-10  1.0000E-10  1.0000E-10  1.0000E-10  1.0000E-10  1.0000E-10  2.0000E-10   0.000    
   5   8.0000E-10  5.0000E-10  1.0000E-10  1.0000E-10  1.0000E-10  1.0000E-10  1.0000E-10  1.0000E-10  1.0000E-10  1.0000E-10
   6   8.0000E-10  5.0000E-10  5.0000E-10  2.0000E-10  2.0000E-10  1.0000E-10  1.0000E-10  1.0000E-10  1.0000E-10  5.0000E-10
   7   8.0000E-10  5.0000E-10  5.0000E-10  2.0000E-10  2.0000E-10  1.0000E-10  1.0000E-10  2.0000E-10  2.0000E-10   0.000    
   8    0.000      5.0000E-10  5.0000E-10  2.0000E-10  2.0000E-10  1.0000E-10  1.0000E-10  2.0000E-10  5.0000E-10   0.000    
   9    0.000      5.0000E-10  5.0000E-10  2.0000E-10  2.0000E-10  1.0000E-10  1.0000E-10  2.0000E-10  5.0000E-10   0.000    
  10    0.000      5.0000E-10  5.0000E-10  2.0000E-10  2.0000E-10  1.0000E-10  1.0000E-10  2.0000E-10  5.0000E-10  8.0000E-10
  11    0.000      1.0000E-10  1.0000E-10  1.0000E-10  1.0000E-10  1.0000E-10  1.0000E-10  2.0000E-10  5.0000E-10   0.000    
  12   1.0000E-10  1.0000E-10  1.0000E-10  1.0000E-10  1.0000E-10  1.0000E-10  1.0000E-10  1.0000E-10  2.0000E-10   0.000    
  13   1.0000E-10  1.0000E-10  2.0000E-10  2.0000E-10  2.0000E-10  2.0000E-10  2.0000E-10  1.0000E-10  1.0000E-10   0.000    
  14    0.000      2.0000E-10  5.0000E-10  5.0000E-10  5.0000E-10  5.0000E-10  5.0000E-10  2.0000E-10  1.0000E-10   0.000    
  15    0.000       0.000      8.0000E-10  8.0000E-10  8.0000E-10  8.0000E-10   0.000       0.000       0.000       0.000    

                  ET RATE =  5.000000E-10

 USING ET EXTINCTION DEPTH FROM PREVIOUS STRESS PERIOD. CURRENT PERIOD IS:      28

 USING EXTINCTION WATER CONTENT FROM PREVIOUS STRESS PERIOD. CURRENT PERIOD IS:      28

 USING AIR ENTRY PRESSURE FROM PREVIOUS STRESS PERIOD. CURRENT PERIOD IS:      28

 USING ROOT PRESSURE HEAD FROM PREVIOUS STRESS PERIOD. CURRENT PERIOD IS:      28

 USING ROOT ACTIVITY FROM PREVIOUS STRESS PERIOD. CURRENT PERIOD IS:      28

 PROCESSING AG STRESS PERIOD DATA

 READING AG STRESS PERIOD DATA

 READING IRRIGATION SEGMENT

 READING IRRIGATION WELL

 READING SUPPLEMENTAL WELL

 END PROCESSING AG STRESS PERIOD DATA OPTIONS
 
 SOLVING FOR HEAD 
                                                   Max.-Head-Change                         Max.-Flux-Residual
  Residual-Control   Outer-Iter.   Inner-Iter.     Column Row Layer    Maximum-Head-Change  Column Row Layer    Maximum-Flux-Residual          L2-NORM 
          0                 1           2             4    7     1       0.1232919686E-01       4    7    1         0.6459482793E+00      0.1699133540E+01
          0                 2           2             4    7     1      -0.1198841447E-02       4    7    1        -0.6459502264E-01      0.1656706248E+00
          0                 3           1             4    7     1       0.8165100107E-04       4    7    1         0.4521651631E-02      0.1153164071E-01

    ------------------------------------------------
       NWT REQUIRED            3 OUTER ITERATIONS 
       AND A TOTAL OF          5 INNER ITERATIONS.
    ------------------------------------------------

 NO OUTPUT CONTROL FOR STRESS PERIOD   28   TIME STEP    1
 
 SOLVING FOR HEAD 
                                                   Max.-Head-Change                         Max.-Flux-Residual
  Residual-Control   Outer-Iter.   Inner-Iter.     Column Row Layer    Maximum-Head-Change  Column Row Layer    Maximum-Flux-Residual          L2-NORM 
          0                 1           2             4    7     1       0.1222815076E-01       4    7    1         0.6406220651E+00      0.1738354164E+01
          0                 2           2             4    7     1      -0.1189015178E-02       4    7    1        -0.6406239717E-01      0.1695071333E+00
          0                 3           1             4    7     1       0.8098177994E-04       4    7    1         0.4484367871E-02      0.1178008296E-01

    ------------------------------------------------
       NWT REQUIRED            3 OUTER ITERATIONS 
       AND A TOTAL OF          5 INNER ITERATIONS.
    ------------------------------------------------

 NO OUTPUT CONTROL FOR STRESS PERIOD   28   TIME STEP    2
 
 SOLVING FOR HEAD 
                                                   Max.-Head-Change                         Max.-Flux-Residual
  Residual-Control   Outer-Iter.   Inner-Iter.     Column Row Layer    Maximum-Head-Change  Column Row Layer    Maximum-Flux-Residual          L2-NORM 
          0                 1           2             4    7     1       0.1212860373E-01       4    7    1         0.6353754878E+00      0.1717145975E+01
          0                 2           2             4    7     1      -0.1179334714E-02       4    7    1        -0.6353773553E-01      0.1674446688E+00
          0                 3           1             4    7     1       0.8032248831E-04       4    7    1         0.4447641572E-02      0.1164146214E-01

    ------------------------------------------------
       NWT REQUIRED            3 OUTER ITERATIONS 
       AND A TOTAL OF          5 INNER ITERATIONS.
    ------------------------------------------------

 NO OUTPUT CONTROL FOR STRESS PERIOD   28   TIME STEP    3
 
 SOLVING FOR HEAD 
                                                   Max.-Head-Change                         Max.-Flux-Residual
  Residual-Control   Outer-Iter.   Inner-Iter.     Column Row Layer    Maximum-Head-Change  Column Row Layer    Maximum-Flux-Residual          L2-NORM 
          0                 1           2             4    7     1       0.1203051720E-01       4    7    1         0.6302066361E+00      0.1697657100E+01
          0                 2           2             4    7     1      -0.1169796318E-02       4    7    1        -0.6302084657E-01      0.1655507396E+00
          0                 3           1             4    7     1       0.7967287119E-04       4    7    1         0.4411459372E-02      0.1151395984E-01

    ------------------------------------------------
       NWT REQUIRED            3 OUTER ITERATIONS 
       AND A TOTAL OF          5 INNER ITERATIONS.
    ------------------------------------------------

 NO OUTPUT CONTROL FOR STRESS PERIOD   28   TIME STEP    4
 
 SOLVING FOR HEAD 
                                                   Max.-Head-Change                         Max.-Flux-Residual
  Residual-Control   Outer-Iter.   Inner-Iter.     Column Row Layer    Maximum-Head-Change  Column Row Layer    Maximum-Flux-Residual          L2-NORM 
          0                 1           2             4    7     1       0.1193372142E-01       4    7    1         0.6251061917E+00      0.1679650582E+01
          0                 2           2             4    7     1      -0.1160383460E-02       4    7    1        -0.6251079840E-01      0.1638004618E+00
          0                 3           1             4    7     1       0.7903180305E-04       4    7    1         0.4375756025E-02      0.1139491845E-01

    ------------------------------------------------
       NWT REQUIRED            3 OUTER ITERATIONS 
       AND A TOTAL OF          5 INNER ITERATIONS.
    ------------------------------------------------

 NO OUTPUT CONTROL FOR STRESS PERIOD   28   TIME STEP    5
 
 SOLVING FOR HEAD 
                                                   Max.-Head-Change                         Max.-Flux-Residual
  Residual-Control   Outer-Iter.   Inner-Iter.     Column Row Layer    Maximum-Head-Change  Column Row Layer    Maximum-Flux-Residual          L2-NORM 
          0                 1           2             4    7     1       0.1183831812E-01       4    7    1         0.6200799885E+00      0.1662915132E+01
          0                 2           2             4    7     1      -0.1151106052E-02       4    7    1        -0.6200817448E-01      0.1621741219E+00
          0                 3           1             4    7     1       0.7839995879E-04       4    7    1         0.4340572370E-02      0.1128522564E-01

    ------------------------------------------------
       NWT REQUIRED            3 OUTER ITERATIONS 
       AND A TOTAL OF          5 INNER ITERATIONS.
    ------------------------------------------------

 NO OUTPUT CONTROL FOR STRESS PERIOD   28   TIME STEP    6
 
 SOLVING FOR HEAD 
                                                   Max.-Head-Change                         Max.-Flux-Residual
  Residual-Control   Outer-Iter.   Inner-Iter.     Column Row Layer    Maximum-Head-Change  Column Row Layer    Maximum-Flux-Residual          L2-NORM 
          0                 1           2             4    7     1       0.1174427534E-01       4    7    1         0.6151259833E+00      0.1647286560E+01
          0                 2           2             4    7     1      -0.1141960968E-02       4    7    1        -0.6151277048E-01      0.1606552980E+00
          0                 3           1             4    7     1       0.7777712633E-04       4    7    1         0.4305894121E-02      0.1118152639E-01

    ------------------------------------------------
       NWT REQUIRED            3 OUTER ITERATIONS 
       AND A TOTAL OF          5 INNER ITERATIONS.
    ------------------------------------------------

 NO OUTPUT CONTROL FOR STRESS PERIOD   28   TIME STEP    7
 
 SOLVING FOR HEAD 
                                                   Max.-Head-Change                         Max.-Flux-Residual
  Residual-Control   Outer-Iter.   Inner-Iter.     Column Row Layer    Maximum-Head-Change  Column Row Layer    Maximum-Flux-Residual          L2-NORM 
          0                 1           2             4    7     1       0.1165142625E-01       4    7    1         0.6102352026E+00      0.1632608877E+01
          0                 2           2             4    7     1      -0.1132931984E-02       4    7    1        -0.6102368897E-01      0.1592290643E+00
          0                 3           1             4    7     1       0.7716219958E-04       4    7    1         0.4271658429E-02      0.1108455904E-01

    ------------------------------------------------
       NWT REQUIRED            3 OUTER ITERATIONS 
       AND A TOTAL OF          5 INNER ITERATIONS.
    ------------------------------------------------

 NO OUTPUT CONTROL FOR STRESS PERIOD   28   TIME STEP    8
 
 SOLVING FOR HEAD 
                                                   Max.-Head-Change                         Max.-Flux-Residual
  Residual-Control   Outer-Iter.   Inner-Iter.     Column Row Layer    Maximum-Head-Change  Column Row Layer    Maximum-Flux-Residual          L2-NORM 
          0                 1           2             4    7     1       0.1155974600E-01       4    7    1         0.6054063128E+00      0.1618755615E+01
          0                 2           2             4    7     1      -0.1124016677E-02       4    7    1        -0.6054079666E-01      0.1578828222E+00
          0                 3           1             4    7     1       0.7655501454E-04       4    7    1         0.4237855982E-02      0.1099277901E-01

    ------------------------------------------------
       NWT REQUIRED            3 OUTER ITERATIONS 
       AND A TOTAL OF          5 INNER ITERATIONS.
    ------------------------------------------------

 NO OUTPUT CONTROL FOR STRESS PERIOD   28   TIME STEP    9
 
 SOLVING FOR HEAD 
                                                   Max.-Head-Change                         Max.-Flux-Residual
  Residual-Control   Outer-Iter.   Inner-Iter.     Column Row Layer    Maximum-Head-Change  Column Row Layer    Maximum-Flux-Residual          L2-NORM 
          0                 1           2             4    7     1       0.1146934381E-01       4    7    1         0.6006453443E+00      0.1605618819E+01
          0                 2           2             4    7     1      -0.1115225687E-02       4    7    1        -0.6006469656E-01      0.1566069659E+00
          0                 3           1             4    7     1       0.7595629554E-04       4    7    1         0.4204529002E-02      0.1090538376E-01

    ------------------------------------------------
       NWT REQUIRED            3 OUTER ITERATIONS 
       AND A TOTAL OF          5 INNER ITERATIONS.
    ------------------------------------------------

 NO OUTPUT CONTROL FOR STRESS PERIOD   28   TIME STEP   10
 
 SOLVING FOR HEAD 
                                                   Max.-Head-Change                         Max.-Flux-Residual
  Residual-Control   Outer-Iter.   Inner-Iter.     Column Row Layer    Maximum-Head-Change  Column Row Layer    Maximum-Flux-Residual          L2-NORM 
          0                 1           2             4    7     1       0.1138019000E-01       4    7    1         0.5959506415E+00      0.1593113782E+01
          0                 2           2             4    7     1      -0.1106556108E-02       4    7    1        -0.5959522314E-01      0.1553919704E+00
          0                 3           1             4    7     1       0.7536584424E-04       4    7    1         0.4171665859E-02      0.1082229015E-01

    ------------------------------------------------
       NWT REQUIRED            3 OUTER ITERATIONS 
       AND A TOTAL OF          5 INNER ITERATIONS.
    ------------------------------------------------

 NO OUTPUT CONTROL FOR STRESS PERIOD   28   TIME STEP   11
 
 SOLVING FOR HEAD 
                                                   Max.-Head-Change                         Max.-Flux-Residual
  Residual-Control   Outer-Iter.   Inner-Iter.     Column Row Layer    Maximum-Head-Change  Column Row Layer    Maximum-Flux-Residual          L2-NORM 
          0                 1           2             4    7     1       0.1129225315E-01       4    7    1         0.5913206664E+00      0.1581157670E+01
          0                 2           2             4    7     1      -0.1098004893E-02       4    7    1        -0.5913222256E-01      0.1542303718E+00
          0                 3           1             4    7     1       0.7478345404E-04       4    7    1         0.4139255849E-02      0.1074220928E-01

    ------------------------------------------------
       NWT REQUIRED            3 OUTER ITERATIONS 
       AND A TOTAL OF          5 INNER ITERATIONS.
    ------------------------------------------------

 NO OUTPUT CONTROL FOR STRESS PERIOD   28   TIME STEP   12
 
 SOLVING FOR HEAD 
                                                   Max.-Head-Change                         Max.-Flux-Residual
  Residual-Control   Outer-Iter.   Inner-Iter.     Column Row Layer    Maximum-Head-Change  Column Row Layer    Maximum-Flux-Residual          L2-NORM 
          0                 1           2             4    7     1       0.1120537141E-01       4    7    1         0.5867464713E+00      0.1569681006E+01
          0                 2           2             4    7     1      -0.1089556297E-02       4    7    1        -0.5867480006E-01      0.1531160236E+00
          0                 3           1             4    7     1       0.7420805209E-04       4    7    1         0.4107236286E-02      0.1066604174E-01

    ------------------------------------------------
       NWT REQUIRED            3 OUTER ITERATIONS 
       AND A TOTAL OF          5 INNER ITERATIONS.
    ------------------------------------------------

 NO OUTPUT CONTROL FOR STRESS PERIOD   28   TIME STEP   13
 
 SOLVING FOR HEAD 
                                                   Max.-Head-Change                         Max.-Flux-Residual
  Residual-Control   Outer-Iter.   Inner-Iter.     Column Row Layer    Maximum-Head-Change  Column Row Layer    Maximum-Flux-Residual          L2-NORM 
          0                 1           2             4    7     1       0.1111965802E-01       4    7    1         0.5822343009E+00      0.1558634477E+01
          0                 2           2             4    7     1      -0.1081221325E-02       4    7    1        -0.5822358009E-01      0.1520432098E+00
          0                 3           1             4    7     1       0.7364038829E-04       4    7    1         0.4075650894E-02      0.1059213303E-01

    ------------------------------------------------
       NWT REQUIRED            3 OUTER ITERATIONS 
       AND A TOTAL OF          5 INNER ITERATIONS.
    ------------------------------------------------

 NO OUTPUT CONTROL FOR STRESS PERIOD   28   TIME STEP   14
 
 SOLVING FOR HEAD 
                                                   Max.-Head-Change                         Max.-Flux-Residual
  Residual-Control   Outer-Iter.   Inner-Iter.     Column Row Layer    Maximum-Head-Change  Column Row Layer    Maximum-Flux-Residual          L2-NORM 
          0                 1           2             4    7     1       0.1103508792E-01       4    7    1         0.5777827087E+00      0.1547963348E+01
          0                 2           2             4    7     1      -0.1072997559E-02       4    7    1        -0.5777841803E-01      0.1510073816E+00
          0                 3           1             4    7     1       0.7308029744E-04       4    7    1         0.4044489568E-02      0.1052151789E-01

    ------------------------------------------------
       NWT REQUIRED            3 OUTER ITERATIONS 
       AND A TOTAL OF          5 INNER ITERATIONS.
    ------------------------------------------------

 NO OUTPUT CONTROL FOR STRESS PERIOD   28   TIME STEP   15
 
 SOLVING FOR HEAD 
                                                   Max.-Head-Change                         Max.-Flux-Residual
  Residual-Control   Outer-Iter.   Inner-Iter.     Column Row Layer    Maximum-Head-Change  Column Row Layer    Maximum-Flux-Residual          L2-NORM 
          0                 1           2             4    7     1       0.1095150100E-01       4    7    1         0.5733830759E+00      0.1537634036E+01
          0                 2           2             4    7     1      -0.1064869405E-02       4    7    1        -0.5733845198E-01      0.1500043096E+00
          0                 3           1             4    7     1       0.7252671842E-04       4    7    1         0.4013691964E-02      0.1045131969E-01

    ------------------------------------------------
       NWT REQUIRED            3 OUTER ITERATIONS 
       AND A TOTAL OF          5 INNER ITERATIONS.
    ------------------------------------------------

 NO OUTPUT CONTROL FOR STRESS PERIOD   28   TIME STEP   16
 
 SOLVING FOR HEAD 
                                                   Max.-Head-Change                         Max.-Flux-Residual
  Residual-Control   Outer-Iter.   Inner-Iter.     Column Row Layer    Maximum-Head-Change  Column Row Layer    Maximum-Flux-Residual          L2-NORM 
          0                 1           2             4    7     1       0.1086901293E-01       4    7    1         0.5690417400E+00      0.1527609352E+01
          0                 2           2             4    7     1      -0.1056848123E-02       4    7    1        -0.5690431568E-01      0.1490313369E+00
          0                 3           1             4    7     1       0.7198041734E-04       4    7    1         0.3983302419E-02      0.1038437510E-01

    ------------------------------------------------
       NWT REQUIRED            3 OUTER ITERATIONS 
       AND A TOTAL OF          5 INNER ITERATIONS.
    ------------------------------------------------

 NO OUTPUT CONTROL FOR STRESS PERIOD   28   TIME STEP   17
 
 SOLVING FOR HEAD 
                                                   Max.-Head-Change                         Max.-Flux-Residual
  Residual-Control   Outer-Iter.   Inner-Iter.     Column Row Layer    Maximum-Head-Change  Column Row Layer    Maximum-Flux-Residual          L2-NORM 
          0                 1           2             4    7     1       0.1078759737E-01       4    7    1         0.5647573781E+00      0.1517857411E+01
          0                 2           2             4    7     1      -0.1048931141E-02       4    7    1        -0.5647587684E-01      0.1480848996E+00
          0                 3           1             4    7     1       0.7144121954E-04       4    7    1         0.3953311729E-02      0.1031880473E-01

    ------------------------------------------------
       NWT REQUIRED            3 OUTER ITERATIONS 
       AND A TOTAL OF          5 INNER ITERATIONS.
    ------------------------------------------------

 NO OUTPUT CONTROL FOR STRESS PERIOD   28   TIME STEP   18
 
 SOLVING FOR HEAD 
                                                   Max.-Head-Change                         Max.-Flux-Residual
  Residual-Control   Outer-Iter.   Inner-Iter.     Column Row Layer    Maximum-Head-Change  Column Row Layer    Maximum-Flux-Residual          L2-NORM 
          0                 1           2             4    7     1       0.1070723386E-01       4    7    1         0.5605286253E+00      0.1508352225E+01
          0                 2           2             4    7     1      -0.1041116489E-02       4    7    1        -0.5605299898E-01      0.1471627378E+00
          0                 3           1             4    7     1       0.7090898999E-04       4    7    1         0.3923710278E-02      0.1025510305E-01

    ------------------------------------------------
       NWT REQUIRED            3 OUTER ITERATIONS 
       AND A TOTAL OF          5 INNER ITERATIONS.
    ------------------------------------------------

 NO OUTPUT CONTROL FOR STRESS PERIOD   28   TIME STEP   19
 
 SOLVING FOR HEAD 
                                                   Max.-Head-Change                         Max.-Flux-Residual
  Residual-Control   Outer-Iter.   Inner-Iter.     Column Row Layer    Maximum-Head-Change  Column Row Layer    Maximum-Flux-Residual          L2-NORM 
          0                 1           2             4    7     1       0.1062789925E-01       4    7    1         0.5563544208E+00      0.1499077631E+01
          0                 2           2             4    7     1      -0.1033401894E-02       4    7    1        -0.5563557602E-01      0.1462630980E+00
          0                 3           1             4    7     1       0.7038357520E-04       4    7    1         0.3894490685E-02      0.1019276658E-01

    ------------------------------------------------
       NWT REQUIRED            3 OUTER ITERATIONS 
       AND A TOTAL OF          5 INNER ITERATIONS.
    ------------------------------------------------

 NO OUTPUT CONTROL FOR STRESS PERIOD   28   TIME STEP   20
 
 SOLVING FOR HEAD 
                                                   Max.-Head-Change                         Max.-Flux-Residual
  Residual-Control   Outer-Iter.   Inner-Iter.     Column Row Layer    Maximum-Head-Change  Column Row Layer    Maximum-Flux-Residual          L2-NORM 
          0                 1           2             4    7     1       0.1054943743E-01       4    7    1         0.5522262446E+00      0.1490003922E+01
          0                 2           2             4    7     1      -0.1025772181E-02       4    7    1        -0.5522275595E-01      0.1453829256E+00
          0                 3           1             4    7     1       0.6986394117E-04       4    7    1         0.3865593294E-02      0.1013176529E-01

    ------------------------------------------------
       NWT REQUIRED            3 OUTER ITERATIONS 
       AND A TOTAL OF          5 INNER ITERATIONS.
    ------------------------------------------------

 NO OUTPUT CONTROL FOR STRESS PERIOD   28   TIME STEP   21
 
 SOLVING FOR HEAD 
                                                   Max.-Head-Change                         Max.-Flux-Residual
  Residual-Control   Outer-Iter.   Inner-Iter.     Column Row Layer    Maximum-Head-Change  Column Row Layer    Maximum-Flux-Residual          L2-NORM 
          0                 1           2             4    7     1       0.1047196427E-01       4    7    1         0.5481506415E+00      0.1481119706E+01
          0                 2           2             4    7     1      -0.1018238612E-02       4    7    1        -0.5481519324E-01      0.1445212887E+00
          0                 3           1             4    7     1       0.6935085470E-04       4    7    1         0.3837063914E-02      0.1007219569E-01

    ------------------------------------------------
       NWT REQUIRED            3 OUTER ITERATIONS 
       AND A TOTAL OF          5 INNER ITERATIONS.
    ------------------------------------------------

 NO OUTPUT CONTROL FOR STRESS PERIOD   28   TIME STEP   22
 
 SOLVING FOR HEAD 
                                                   Max.-Head-Change                         Max.-Flux-Residual
  Residual-Control   Outer-Iter.   Inner-Iter.     Column Row Layer    Maximum-Head-Change  Column Row Layer    Maximum-Flux-Residual          L2-NORM 
          0                 1           2             4    7     1       0.1039546485E-01       4    7    1         0.5441263003E+00      0.1472414879E+01
          0                 2           2             4    7     1      -0.1010799752E-02       4    7    1        -0.5441275676E-01      0.1436773726E+00
          0                 3           1             4    7     1       0.6884421805E-04       4    7    1         0.3808893380E-02      0.1001359844E-01

    ------------------------------------------------
       NWT REQUIRED            3 OUTER ITERATIONS 
       AND A TOTAL OF          5 INNER ITERATIONS.
    ------------------------------------------------

 NO OUTPUT CONTROL FOR STRESS PERIOD   28   TIME STEP   23
 
 SOLVING FOR HEAD 
                                                   Max.-Head-Change                         Max.-Flux-Residual
  Residual-Control   Outer-Iter.   Inner-Iter.     Column Row Layer    Maximum-Head-Change  Column Row Layer    Maximum-Flux-Residual          L2-NORM 
          0                 1           2             4    7     1       0.1031991139E-01       4    7    1         0.5401524463E+00      0.1463867288E+01
          0                 2           2             4    7     1      -0.1003452883E-02       4    7    1        -0.5401536908E-01      0.1428485625E+00
          0                 3           1             4    7     1       0.6834384649E-04       4    7    1         0.3781076250E-02      0.9955905610E-02

    ------------------------------------------------
       NWT REQUIRED            3 OUTER ITERATIONS 
       AND A TOTAL OF          5 INNER ITERATIONS.
    ------------------------------------------------

 NO OUTPUT CONTROL FOR STRESS PERIOD   28   TIME STEP   24
 
 SOLVING FOR HEAD 
                                                   Max.-Head-Change                         Max.-Flux-Residual
  Residual-Control   Outer-Iter.   Inner-Iter.     Column Row Layer    Maximum-Head-Change  Column Row Layer    Maximum-Flux-Residual          L2-NORM 
          0                 1           2             4    7     1       0.1024529034E-01       4    7    1         0.5362276407E+00      0.1455476132E+01
          0                 2           2             4    7     1      -0.9961966948E-03       4    7    1        -0.5362288630E-01      0.1420353077E+00
          0                 3           1             4    7     1       0.6784965045E-04       4    7    1         0.3753602476E-02      0.9899581462E-02

    ------------------------------------------------
       NWT REQUIRED            3 OUTER ITERATIONS 
       AND A TOTAL OF          5 INNER ITERATIONS.
    ------------------------------------------------

 NO OUTPUT CONTROL FOR STRESS PERIOD   28   TIME STEP   25
 
 SOLVING FOR HEAD 
                                                   Max.-Head-Change                         Max.-Flux-Residual
  Residual-Control   Outer-Iter.   Inner-Iter.     Column Row Layer    Maximum-Head-Change  Column Row Layer    Maximum-Flux-Residual          L2-NORM 
          0                 1           2             4    7     1       0.1017144305E-01       4    7    1         0.5323438593E+00      0.1447224152E+01
          0                 2           2             4    7     1      -0.9890157461E-03       4    7    1        -0.5323450598E-01      0.1412354167E+00
          0                 3           1             4    7     1       0.6736057886E-04       4    7    1         0.3726415860E-02      0.9844016700E-02

    ------------------------------------------------
       NWT REQUIRED            3 OUTER ITERATIONS 
       AND A TOTAL OF          5 INNER ITERATIONS.
    ------------------------------------------------

 NO OUTPUT CONTROL FOR STRESS PERIOD   28   TIME STEP   26
 
 SOLVING FOR HEAD 
                                                   Max.-Head-Change                         Max.-Flux-Residual
  Residual-Control   Outer-Iter.   Inner-Iter.     Column Row Layer    Maximum-Head-Change  Column Row Layer    Maximum-Flux-Residual          L2-NORM 
          0                 1           2             4    7     1       0.1009863011E-01       4    7    1         0.5285148385E+00      0.1439115109E+01
          0                 2           2             4    7     1      -0.9819371741E-03       4    7    1        -0.5285160174E-01      0.1404523512E+00
          0                 3           1             4    7     1       0.6687847884E-04       4    7    1         0.3699612565E-02      0.9789473726E-02

    ------------------------------------------------
       NWT REQUIRED            3 OUTER ITERATIONS 
       AND A TOTAL OF          5 INNER ITERATIONS.
    ------------------------------------------------

 NO OUTPUT CONTROL FOR STRESS PERIOD   28   TIME STEP   27
 
 SOLVING FOR HEAD 
                                                   Max.-Head-Change                         Max.-Flux-Residual
  Residual-Control   Outer-Iter.   Inner-Iter.     Column Row Layer    Maximum-Head-Change  Column Row Layer    Maximum-Flux-Residual          L2-NORM 
          0                 1           2             4    7     1       0.1002653877E-01       4    7    1         0.5247247127E+00      0.1431126302E+01
          0                 2           2             4    7     1      -0.9749252177E-03       4    7    1        -0.5247258713E-01      0.1396757558E+00
          0                 3           1             4    7     1       0.6640091632E-04       4    7    1         0.3673081560E-02      0.9735712656E-02

    ------------------------------------------------
       NWT REQUIRED            3 OUTER ITERATIONS 
       AND A TOTAL OF          5 INNER ITERATIONS.
    ------------------------------------------------

 NO OUTPUT CONTROL FOR STRESS PERIOD   28   TIME STEP   28
 
 SOLVING FOR HEAD 
                                                   Max.-Head-Change                         Max.-Flux-Residual
  Residual-Control   Outer-Iter.   Inner-Iter.     Column Row Layer    Maximum-Head-Change  Column Row Layer    Maximum-Flux-Residual          L2-NORM 
          0                 1           2             4    7     1       0.9955431902E-02       4    7    1         0.5209868316E+00      0.1423249327E+01
          0                 2           2             4    7     1      -0.9680107850E-03       4    7    1        -0.5209879700E-01      0.1389126668E+00
          0                 3           1             4    7     1       0.6592999485E-04       4    7    1         0.3646916243E-02      0.9682593606E-02

    ------------------------------------------------
       NWT REQUIRED            3 OUTER ITERATIONS 
       AND A TOTAL OF          5 INNER ITERATIONS.
    ------------------------------------------------

 NO OUTPUT CONTROL FOR STRESS PERIOD   28   TIME STEP   29
 
 SOLVING FOR HEAD 
                                                   Max.-Head-Change                         Max.-Flux-Residual
  Residual-Control   Outer-Iter.   Inner-Iter.     Column Row Layer    Maximum-Head-Change  Column Row Layer    Maximum-Flux-Residual          L2-NORM 
          0                 1           2             4    7     1       0.9885019104E-02       4    7    1         0.5172852585E+00      0.1415488819E+01
          0                 2           2             4    7     1      -0.9611638402E-03       4    7    1        -0.5172863771E-01      0.1381609300E+00
          0                 3           1             4    7     1       0.6546367005E-04       4    7    1         0.3621005101E-02      0.9630337906E-02

    ------------------------------------------------
       NWT REQUIRED            3 OUTER ITERATIONS 
       AND A TOTAL OF          5 INNER ITERATIONS.
    ------------------------------------------------

 NO OUTPUT CONTROL FOR STRESS PERIOD   28   TIME STEP   30



 STREAM LISTING     PERIOD     28   STEP       30

 LAYER ROW COL. STREAM  RCH.  FLOW INTO     FLOW TO   FLOW OUT OF   OVRLND.     DIRECT     STREAM       STREAM     STREAM     STREAM   STREAMBED  STREAMBED
                SEG.NO.  NO.  STRM. RCH.    AQUIFER    STRM. RCH.    RUNOFF     PRECIP       ET          HEAD       DEPTH      WIDTH   CONDCTNC.   GRADIENT

   1    1    1     1     1    2.8874E+01  2.6239E-01   2.8612E+01  0.000E+00  0.000E+00  0.000E+00  1.09428E+03  1.233E+00  1.377E+01  6.198E-02  1.411E+00
   1    2    2     1     2    2.8612E+01  4.0592E-01   2.8206E+01  0.000E+00  0.000E+00  0.000E+00  1.08929E+03  1.229E+00  1.371E+01  9.599E-02  1.410E+00
   1    3    3     1     3    2.8206E+01  3.4575E-01   2.7860E+01  0.000E+00  0.000E+00  0.000E+00  1.08364E+03  1.224E+00  1.364E+01  8.186E-02  1.408E+00
   1    3    4     1     4    2.7860E+01  3.1803E-01   2.7542E+01  0.000E+00  0.000E+00  0.000E+00  1.07863E+03  1.219E+00  1.358E+01  7.538E-02  1.406E+00
   1    4    5     2     1    2.5542E+01  3.2904E-01   2.5213E+01  0.000E+00  0.000E+00  0.000E+00  1.07315E+03  1.218E+00  1.200E+01  7.800E-02  1.406E+00
   1    5    6     2     2    2.5213E+01  2.5260E-01   2.4960E+01  0.000E+00  0.000E+00  0.000E+00  1.06772E+03  1.210E+00  1.200E+01  6.000E-02  1.403E+00
   1    6    6     2     3    2.4960E+01  2.5217E-01   2.4708E+01  0.000E+00  0.000E+00  0.000E+00  1.06300E+03  1.203E+00  1.200E+01  6.000E-02  1.401E+00
   1    7    6     2     4    2.4708E+01  2.5172E-01   2.4457E+01  0.000E+00  0.000E+00  0.000E+00  1.05827E+03  1.195E+00  1.200E+01  6.000E-02  1.398E+00
   1    8    6     2     5    2.4457E+01  2.5128E-01   2.4205E+01  0.000E+00  0.000E+00  0.000E+00  1.05355E+03  1.188E+00  1.200E+01  6.000E-02  1.396E+00
   1    3    5     3     1    2.0000E+00  2.8252E-01   1.7175E+00  0.000E+00  0.000E+00  0.000E+00  1.07555E+03  1.909E+00  9.636E+00  7.227E-02  1.955E+00
   1    3    6     3     2    1.7175E+00  2.4905E-01   1.4684E+00  0.000E+00  0.000E+00  0.000E+00  1.07264E+03  1.727E+00  8.909E+00  6.682E-02  1.864E+00
   1    3    7     3     3    1.4684E+00  1.9718E-01   1.2712E+00  0.000E+00  0.000E+00  0.000E+00  1.06987E+03  1.555E+00  8.218E+00  5.547E-02  1.777E+00
   1    4    8     3     4    1.2712E+00  2.2567E-01   1.0456E+00  0.000E+00  0.000E+00  0.000E+00  1.06682E+03  1.364E+00  7.455E+00  6.709E-02  1.682E+00
   1    5    8     3     5    1.0456E+00  1.5790E-01   8.8768E-01  0.000E+00  0.000E+00  0.000E+00  1.06362E+03  1.164E+00  6.655E+00  4.991E-02  1.582E+00
   1    6    8     3     6    8.8768E-01  5.5980E-02   8.3170E-01  0.000E+00  0.000E+00  0.000E+00  1.06158E+03  1.036E+00  6.145E+00  1.844E-02  1.518E+00
   1    5   10     4     1    1.0000E+01  9.0919E-02   9.9091E+00  0.000E+00  0.000E+00  0.000E+00  1.07836E+03  6.368E-01  1.000E+01  2.500E-02  1.212E+00
   1    5    9     4     2    9.9091E+00  1.8158E-01   9.7275E+00  0.000E+00  0.000E+00  0.000E+00  1.07154E+03  6.315E-01  1.000E+01  5.000E-02  1.211E+00
   1    6    8     4     3    9.7275E+00  1.2689E-01   9.6006E+00  0.000E+00  0.000E+00  0.000E+00  1.06381E+03  6.256E-01  1.000E+01  3.500E-02  1.209E+00
   1    6    8     5     1    1.0432E+01  2.2686E-01   1.0205E+01  0.000E+00  0.000E+00  0.000E+00  1.05868E+03  6.790E-01  1.542E+01  6.166E-02  1.226E+00
   1    7    7     5     2    1.0205E+01  2.7894E-01   9.9265E+00  0.000E+00  0.000E+00  0.000E+00  1.05417E+03  6.732E-01  1.519E+01  7.594E-02  1.224E+00
   1    8    7     5     3    9.9265E+00  1.9221E-01   9.7343E+00  0.000E+00  0.000E+00  0.000E+00  1.04992E+03  6.676E-01  1.497E+01  5.241E-02  1.223E+00
   1    8    6     5     4    9.7343E+00  1.3577E-01   9.5985E+00  0.000E+00  0.000E+00  0.000E+00  1.04691E+03  6.637E-01  1.482E+01  3.706E-02  1.221E+00
   1    9    6     6     1    3.3804E+01  2.6759E-01   3.3536E+01  0.000E+00  0.000E+00  0.000E+00  1.04419E+03  1.460E+00  1.200E+01  6.000E-02  1.487E+00
   1   10    7     6     2    3.3536E+01  2.6717E-01   3.3269E+01  0.000E+00  0.000E+00  0.000E+00  1.03963E+03  1.453E+00  1.200E+01  6.000E-02  1.484E+00
   1   11    7     6     3    3.3269E+01  2.6676E-01   3.3002E+01  0.000E+00  0.000E+00  0.000E+00  1.03508E+03  1.446E+00  1.200E+01  6.000E-02  1.482E+00
   1   12    7     6     4    3.3002E+01  2.6634E-01   3.2736E+01  0.000E+00  0.000E+00  0.000E+00  1.03053E+03  1.439E+00  1.200E+01  6.000E-02  1.480E+00
   1   13    7     6     5    3.2736E+01  1.7388E-02   3.2719E+01  0.000E+00  0.000E+00  0.000E+00  1.02734E+03  1.435E+00  1.200E+01  2.400E-02  2.415E-01
   1   14    9     7     1    1.5000E+02  1.3814E+00   1.4862E+02  0.000E+00  0.000E+00  0.000E+00  1.03987E+03  2.288E+00  5.529E+01  5.593E-01  8.233E-01
   1   13    8     7     2    1.4862E+02  1.9789E+00   1.4664E+02  0.000E+00  0.000E+00  0.000E+00  1.03478E+03  2.279E+00  5.525E+01  6.147E-01  1.073E+00
   1   13    7     7     3    1.4664E+02  1.7133E+00   1.4493E+02  0.000E+00  0.000E+00  0.000E+00  1.02969E+03  2.269E+00  5.521E+01  5.584E-01  1.023E+00
   1   13    6     8     1    1.7764E+02  1.1928E+00   1.7645E+02  0.000E+00  0.000E+00  0.000E+00  1.02487E+03  2.998E+00  4.346E+01  4.429E-01  8.977E-01
   1   13    5     8     2    1.7645E+02  4.1261E-01   1.7604E+02  0.000E+00  0.000E+00  0.000E+00  1.01862E+03  2.992E+00  4.339E+01  4.422E-01  3.111E-01
   1   13    4     8     3    1.7604E+02 -1.6730E+00   1.7771E+02  0.000E+00  0.000E+00  0.000E+00  1.01237E+03  2.996E+00  4.345E+01  4.428E+00 -1.260E-01
   1   13    3     8     4    1.7771E+02 -3.2663E+00   1.8098E+02  0.000E+00  0.000E+00  0.000E+00  1.00614E+03  3.012E+00  4.367E+01  4.451E+00 -2.446E-01
   1   13    2     8     5    1.8098E+02 -2.4487E+00   1.8343E+02  0.000E+00  0.000E+00  0.000E+00  9.99905E+02  3.030E+00  4.393E+01  4.477E+00 -1.823E-01
   1   13    1     8     6    1.8343E+02 -1.9132E+00   1.8534E+02  0.000E+00  0.000E+00  0.000E+00  9.94919E+02  3.044E+00  4.413E+01  2.698E+00 -2.364E-01
   1    8    6     9     1    0.0000E+00  0.0000E+00   0.0000E+00  0.000E+00  0.000E+00  0.000E+00  1.07875E+03  0.000E+00  4.000E+00  0.000E+00  1.000E+00
   1    8    5     9     2    0.0000E+00  0.0000E+00   0.0000E+00  0.000E+00  0.000E+00  0.000E+00  1.07825E+03  0.000E+00  4.000E+00  0.000E+00  1.000E+00





UNSATURATED ZONE PACKAGE VOLUMETRIC BUDGET FOR  TIME STEP    30 STRESS PERIOD   28
  ------------------------------------------------------------------------------



     CUMULATIVE VOLUMES      L**3       RATES FOR THIS TIME STEP      L**3/T
     ------------------                 ------------------------

           IN:                                      IN:
           ---                                      ---
        INFILTRATION =  1043373775.8951          INFILTRATION =           0.8475

          OUT:                                     OUT:
          ----                                     ----
              UZF ET =   867255927.5278                UZF ET =           0.7500
        UZF RECHARGE =      906604.2773          UZF RECHARGE =           0.0496

            IN - OUT =   175211244.0900              IN - OUT =       4.7910E-02

          STORAGE:                                 STORAGE:
          --------                                 --------
      STORAGE CHANGE =   175211720.6046        STORAGE CHANGE =       4.7910E-02

 PERCENT DISCREPANCY IS DIFFERENCE BETWEEN IN-OUT MINUS CHANGE IN STORAGE
 DIVIDED BY THE AVERAGE OF IN AND OUT TIMES 100

 PERCENT DISCREPANCY =          -0.00     PERCENT DISCREPANCY =           0.00






1
  VOLUMETRIC BUDGET FOR AGRICULTURAL FIELDS AT  END OF TIME STEP   30, STRESS PERIOD  28
  ------------------------------------------------------------------------------

     CUMULATIVE VOLUMES      L**3       RATES FOR THIS TIME STEP      L**3/T
     ------------------                 ------------------------

           IN:                                      IN:
           ---                                      ---
               AG WELLS  =   665535360.0000                 AG WELLS  =           0.0000
      DIVERSION SEGMENTS =   317583232.0000        DIVERSION SEGMENTS =           0.0000
           GW IRRIGATION =           0.0000             GW IRRIGATION =           0.0000
           SW IRRIGATION =           0.0000             SW IRRIGATION =           0.0000
        SYSTEM LOSSES GW =           0.0000          SYSTEM LOSSES GW =           0.0000
        SYSTEM LOSSES SW =           0.0000          SYSTEM LOSSES SW =           0.0000

                TOTAL IN =   983118592.0000                  TOTAL IN =           0.0000

          OUT:                                     OUT:
          ----                                     ----
               AG WELLS  =           0.0000                 AG WELLS  =           0.0000
      DIVERSION SEGMENTS =           0.0000        DIVERSION SEGMENTS =           0.0000
           GW IRRIGATION =   665535360.0000             GW IRRIGATION =           0.0000
           SW IRRIGATION =   317589344.0000             SW IRRIGATION =           0.0000
        SYSTEM LOSSES GW =           0.0000          SYSTEM LOSSES GW =           0.0000
        SYSTEM LOSSES SW =           0.0000          SYSTEM LOSSES SW =           0.0000

               TOTAL OUT =   983124736.0000                 TOTAL OUT =           0.0000

                IN - OUT =       -6144.0000                  IN - OUT =           0.0000

     PERCENT DISCREPANCY =          -0.00         PERCENT DISCREPANCY =           0.00



1
  VOLUMETRIC BUDGET FOR ENTIRE MODEL AT END OF TIME STEP   30, STRESS PERIOD  28
  ------------------------------------------------------------------------------

     CUMULATIVE VOLUMES      L**3       RATES FOR THIS TIME STEP      L**3/T
     ------------------                 ------------------------

           IN:                                      IN:
           ---                                      ---
             STORAGE     =  1007236800.0000               STORAGE     =           2.8740
       CONSTANT HEAD     =           0.0000         CONSTANT HEAD     =           0.0000
     HEAD DEP BOUNDS     =    20488628.0000       HEAD DEP BOUNDS     =           0.2889
      STREAM LEAKAGE     =   838177600.0000        STREAM LEAKAGE     =          12.8346
        UZF RECHARGE     =      906604.3125          UZF RECHARGE     =       4.9591E-02
               GW ET     =           0.0000                 GW ET     =           0.0000
     SURFACE LEAKAGE     =           0.0000       SURFACE LEAKAGE     =           0.0000
           AG WELLS      =           0.0000             AG WELLS      =           0.0000

                TOTAL IN =  1866809728.0000                  TOTAL IN =          16.0470

          OUT:                                     OUT:
          ----                                     ----
             STORAGE     =   464966400.0000               STORAGE     =           6.4569
       CONSTANT HEAD     =           0.0000         CONSTANT HEAD     =           0.0000
     HEAD DEP BOUNDS     =    20474502.0000       HEAD DEP BOUNDS     =           0.2898
      STREAM LEAKAGE     =   715845312.0000        STREAM LEAKAGE     =           9.3012
        UZF RECHARGE     =           0.0000          UZF RECHARGE     =           0.0000
               GW ET     =           0.0000                 GW ET     =           0.0000
     SURFACE LEAKAGE     =           0.0000       SURFACE LEAKAGE     =           0.0000
           AG WELLS      =   665535360.0000             AG WELLS      =           0.0000

               TOTAL OUT =  1866821504.0000                 TOTAL OUT =          16.0479

                IN - OUT =      -11776.0000                  IN - OUT =      -8.9073E-04

     PERCENT DISCREPANCY =          -0.00         PERCENT DISCREPANCY =          -0.01






         TIME SUMMARY AT END OF TIME STEP   30 IN STRESS PERIOD   28
                    SECONDS     MINUTES      HOURS       DAYS        YEARS
                    -----------------------------------------------------------
   TIME STEP LENGTH  87667.      1461.1      24.352      1.0147     2.77799E-03
 STRESS PERIOD TIME 2.63000E+06  43833.      730.56      30.440     8.33397E-02
         TOTAL TIME 7.10967E+07 1.18494E+06  19749.      822.88      2.2529    
1
1
                            STRESS PERIOD NO.   29, LENGTH =   2630000.    
                            -----------------------------------------------

                              NUMBER OF TIME STEPS =    30

                               MULTIPLIER FOR DELT =     1.000

                            INITIAL TIME STEP SIZE =   87666.66    

 REUSING NON-PARAMETER GHB CELLS FROM LAST STRESS PERIOD

      2 GHB CELLS

 REUSING STREAM SEGMENT DATA FROM LAST STRESS PERIOD



            AREAL INFILTRATION RATE
 READING ON UNIT   19 WITH FORMAT: (FREE)              

            1           2           3           4           5           6           7           8           9          10
 ........................................................................................................................
   1   1.0000E-10  2.0000E-10   0.000       0.000       0.000       0.000       0.000       0.000       0.000       0.000    
   2   2.0000E-10  1.0000E-10  2.0000E-10   0.000       0.000      8.0000E-10  8.0000E-10  5.0000E-10   0.000       0.000    
   3    0.000      5.0000E-10  1.0000E-10  1.0000E-10  8.0000E-10  8.0000E-10  5.0000E-10  5.0000E-10   0.000       0.000    
   4   8.0000E-10  5.0000E-10  1.0000E-10  1.0000E-10  1.0000E-10  1.0000E-10  1.0000E-10  1.0000E-10  2.0000E-10   0.000    
   5   8.0000E-10  5.0000E-10  1.0000E-10  1.0000E-10  1.0000E-10  1.0000E-10  1.0000E-10  1.0000E-10  1.0000E-10  1.0000E-10
   6   8.0000E-10  5.0000E-10  5.0000E-10  2.0000E-10  2.0000E-10  1.0000E-10  1.0000E-10  1.0000E-10  1.0000E-10  5.0000E-10
   7   8.0000E-10  5.0000E-10  5.0000E-10  2.0000E-10  2.0000E-10  1.0000E-10  1.0000E-10  2.0000E-10  2.0000E-10   0.000    
   8    0.000      5.0000E-10  5.0000E-10  2.0000E-10  2.0000E-10  1.0000E-10  1.0000E-10  2.0000E-10  5.0000E-10   0.000    
   9    0.000      5.0000E-10  5.0000E-10  2.0000E-10  2.0000E-10  1.0000E-10  1.0000E-10  2.0000E-10  5.0000E-10   0.000    
  10    0.000      5.0000E-10  5.0000E-10  2.0000E-10  2.0000E-10  1.0000E-10  1.0000E-10  2.0000E-10  5.0000E-10  8.0000E-10
  11    0.000      1.0000E-10  1.0000E-10  1.0000E-10  1.0000E-10  1.0000E-10  1.0000E-10  2.0000E-10  5.0000E-10   0.000    
  12   1.0000E-10  1.0000E-10  1.0000E-10  1.0000E-10  1.0000E-10  1.0000E-10  1.0000E-10  1.0000E-10  2.0000E-10   0.000    
  13   1.0000E-10  1.0000E-10  2.0000E-10  2.0000E-10  2.0000E-10  2.0000E-10  2.0000E-10  1.0000E-10  1.0000E-10   0.000    
  14    0.000      2.0000E-10  5.0000E-10  5.0000E-10  5.0000E-10  5.0000E-10  5.0000E-10  2.0000E-10  1.0000E-10   0.000    
  15    0.000       0.000      8.0000E-10  8.0000E-10  8.0000E-10  8.0000E-10   0.000       0.000       0.000       0.000    

                  ET RATE =  2.500000E-08

 USING ET EXTINCTION DEPTH FROM PREVIOUS STRESS PERIOD. CURRENT PERIOD IS:      29

 USING EXTINCTION WATER CONTENT FROM PREVIOUS STRESS PERIOD. CURRENT PERIOD IS:      29

 USING AIR ENTRY PRESSURE FROM PREVIOUS STRESS PERIOD. CURRENT PERIOD IS:      29

 USING ROOT PRESSURE HEAD FROM PREVIOUS STRESS PERIOD. CURRENT PERIOD IS:      29

 USING ROOT ACTIVITY FROM PREVIOUS STRESS PERIOD. CURRENT PERIOD IS:      29

 PROCESSING AG STRESS PERIOD DATA

 READING AG STRESS PERIOD DATA

 READING IRRIGATION SEGMENT

 READING IRRIGATION WELL

 READING SUPPLEMENTAL WELL

 END PROCESSING AG STRESS PERIOD DATA OPTIONS
 
 SOLVING FOR HEAD 
                                                   Max.-Head-Change                         Max.-Flux-Residual
  Residual-Control   Outer-Iter.   Inner-Iter.     Column Row Layer    Maximum-Head-Change  Column Row Layer    Maximum-Flux-Residual          L2-NORM 
          0                 1           2             4    7     1       0.9815429031E-02       4    7    1         0.5136269943E+00      0.1407839044E+01
          0                 2           2             4    7     1      -0.9543969065E-03       4    7    1        -0.5136280934E-01      0.1374200190E+00
          0                 3           1             4    7     1       0.6500279453E-04       4    7    1         0.3595397128E-02      0.9578870245E-02

    ------------------------------------------------
       NWT REQUIRED            3 OUTER ITERATIONS 
       AND A TOTAL OF          5 INNER ITERATIONS.
    ------------------------------------------------

 NO OUTPUT CONTROL FOR STRESS PERIOD   29   TIME STEP    1
 
 SOLVING FOR HEAD 
                                                   Max.-Head-Change                         Max.-Flux-Residual
  Residual-Control   Outer-Iter.   Inner-Iter.     Column Row Layer    Maximum-Head-Change  Column Row Layer    Maximum-Flux-Residual          L2-NORM 
          0                 1           2             4    7     1       0.9746645935E-02       4    7    1         0.5100187096E+00      0.1480172099E+01
          0                 2           2             4    7     1      -0.9477089161E-03       4    7    1        -0.5100197910E-01      0.1443487605E+00
          0                 3           1             4    7     1       0.6454728025E-04       4    7    1         0.3570139026E-02      0.1002020948E-01

    ------------------------------------------------
       NWT REQUIRED            3 OUTER ITERATIONS 
       AND A TOTAL OF          5 INNER ITERATIONS.
    ------------------------------------------------

 NO OUTPUT CONTROL FOR STRESS PERIOD   29   TIME STEP    2
 
 SOLVING FOR HEAD 
                                                   Max.-Head-Change                         Max.-Flux-Residual
  Residual-Control   Outer-Iter.   Inner-Iter.     Column Row Layer    Maximum-Head-Change  Column Row Layer    Maximum-Flux-Residual          L2-NORM 
          0                 1           2             4    7     1       0.9678357217E-02       4    7    1         0.5064375959E+00      0.1506731971E+01
          0                 2           2             4    7     1      -0.9410691058E-03       4    7    1        -0.5064386601E-01      0.1469561064E+00
          0                 3           1             4    7     1       0.6409504402E-04       4    7    1         0.3545071107E-02      0.1019033091E-01

    ------------------------------------------------
       NWT REQUIRED            3 OUTER ITERATIONS 
       AND A TOTAL OF          5 INNER ITERATIONS.
    ------------------------------------------------

 NO OUTPUT CONTROL FOR STRESS PERIOD   29   TIME STEP    3
 
 SOLVING FOR HEAD 
                                                   Max.-Head-Change                         Max.-Flux-Residual
  Residual-Control   Outer-Iter.   Inner-Iter.     Column Row Layer    Maximum-Head-Change  Column Row Layer    Maximum-Flux-Residual          L2-NORM 
          0                 1           2             4    7     1       0.9610697368E-02       4    7    1         0.5028894308E+00      0.1481714895E+01
          0                 2           2             4    7     1      -0.9344904015E-03       4    7    1        -0.5028904781E-01      0.1445334204E+00
          0                 3           1             4    7     1       0.6364697157E-04       4    7    1         0.3520233835E-02      0.1002813123E-01

    ------------------------------------------------
       NWT REQUIRED            3 OUTER ITERATIONS 
       AND A TOTAL OF          5 INNER ITERATIONS.
    ------------------------------------------------

 NO OUTPUT CONTROL FOR STRESS PERIOD   29   TIME STEP    4
 
 SOLVING FOR HEAD 
                                                   Max.-Head-Change                         Max.-Flux-Residual
  Residual-Control   Outer-Iter.   Inner-Iter.     Column Row Layer    Maximum-Head-Change  Column Row Layer    Maximum-Flux-Residual          L2-NORM 
          0                 1           2             4    7     1       0.9543668562E-02       4    7    1         0.4993738752E+00      0.1459285983E+01
          0                 2           2             4    7     1      -0.9279730257E-03       4    7    1        -0.4993749057E-01      0.1423640302E+00
          0                 3           1             4    7     1       0.6320307642E-04       4    7    1         0.3495624838E-02      0.9882711859E-02

    ------------------------------------------------
       NWT REQUIRED            3 OUTER ITERATIONS 
       AND A TOTAL OF          5 INNER ITERATIONS.
    ------------------------------------------------

 NO OUTPUT CONTROL FOR STRESS PERIOD   29   TIME STEP    5
 
 SOLVING FOR HEAD 
                                                   Max.-Head-Change                         Max.-Flux-Residual
  Residual-Control   Outer-Iter.   Inner-Iter.     Column Row Layer    Maximum-Head-Change  Column Row Layer    Maximum-Flux-Residual          L2-NORM 
          0                 1           2             4    7     1       0.9477264984E-02       4    7    1         0.4958910414E+00      0.1439070202E+01
          0                 2           2             4    7     1      -0.9215164153E-03       4    7    1        -0.4958920553E-01      0.1404099792E+00
          0                 3           1             4    7     1       0.6276332150E-04       4    7    1         0.3471244886E-02      0.9752070005E-02

    ------------------------------------------------
       NWT REQUIRED            3 OUTER ITERATIONS 
       AND A TOTAL OF          5 INNER ITERATIONS.
    ------------------------------------------------

 NO OUTPUT CONTROL FOR STRESS PERIOD   29   TIME STEP    6
 
 SOLVING FOR HEAD 
                                                   Max.-Head-Change                         Max.-Flux-Residual
  Residual-Control   Outer-Iter.   Inner-Iter.     Column Row Layer    Maximum-Head-Change  Column Row Layer    Maximum-Flux-Residual          L2-NORM 
          0                 1           2             4    7     1       0.9411620159E-02       4    7    1         0.4924479497E+00      0.1420770343E+01
          0                 2           2             4    7     1      -0.9151335527E-03       4    7    1        -0.4924489475E-01      0.1386419528E+00
          0                 3           1             4    7     1       0.6232859021E-04       4    7    1         0.3447143141E-02      0.9633818229E-02

    ------------------------------------------------
       NWT REQUIRED            3 OUTER ITERATIONS 
       AND A TOTAL OF          5 INNER ITERATIONS.
    ------------------------------------------------

 NO OUTPUT CONTROL FOR STRESS PERIOD   29   TIME STEP    7
 
 SOLVING FOR HEAD 
                                                   Max.-Head-Change                         Max.-Flux-Residual
  Residual-Control   Outer-Iter.   Inner-Iter.     Column Row Layer    Maximum-Head-Change  Column Row Layer    Maximum-Flux-Residual          L2-NORM 
          0                 1           2             4    7     1       0.9346453151E-02       4    7    1         0.4890295571E+00      0.1404103917E+01
          0                 2           2             4    7     1      -0.9087971297E-03       4    7    1        -0.4890305391E-01      0.1370326139E+00
          0                 3           1             4    7     1       0.6189702254E-04       4    7    1         0.3423214293E-02      0.9525417280E-02

    ------------------------------------------------
       NWT REQUIRED            3 OUTER ITERATIONS 
       AND A TOTAL OF          5 INNER ITERATIONS.
    ------------------------------------------------

 NO OUTPUT CONTROL FOR STRESS PERIOD   29   TIME STEP    8
 
 SOLVING FOR HEAD 
                                                   Max.-Head-Change                         Max.-Flux-Residual
  Residual-Control   Outer-Iter.   Inner-Iter.     Column Row Layer    Maximum-Head-Change  Column Row Layer    Maximum-Flux-Residual          L2-NORM 
          0                 1           2             4    7     1       0.9281903266E-02       4    7    1         0.4856432629E+00      0.1388851398E+01
          0                 2           2             4    7     1      -0.9025206811E-03       4    7    1        -0.4856442291E-01      0.1355603096E+00
          0                 3           1             4    7     1       0.6146954067E-04       4    7    1         0.3399510125E-02      0.9425913103E-02

    ------------------------------------------------
       NWT REQUIRED            3 OUTER ITERATIONS 
       AND A TOTAL OF          5 INNER ITERATIONS.
    ------------------------------------------------

 NO OUTPUT CONTROL FOR STRESS PERIOD   29   TIME STEP    9
 
 SOLVING FOR HEAD 
                                                   Max.-Head-Change                         Max.-Flux-Residual
  Residual-Control   Outer-Iter.   Inner-Iter.     Column Row Layer    Maximum-Head-Change  Column Row Layer    Maximum-Flux-Residual          L2-NORM 
          0                 1           2             4    7     1       0.9217965698E-02       4    7    1         0.4822889686E+00      0.1374812082E+01
          0                 2           2             4    7     1      -0.8963037509E-03       4    7    1        -0.4822899194E-01      0.1342088467E+00
          0                 3           1             4    7     1       0.6104611266E-04       4    7    1         0.3376029954E-02      0.9335722031E-02

    ------------------------------------------------
       NWT REQUIRED            3 OUTER ITERATIONS 
       AND A TOTAL OF          5 INNER ITERATIONS.
    ------------------------------------------------

 NO OUTPUT CONTROL FOR STRESS PERIOD   29   TIME STEP   10
 
 SOLVING FOR HEAD 
                                                   Max.-Head-Change                         Max.-Flux-Residual
  Residual-Control   Outer-Iter.   Inner-Iter.     Column Row Layer    Maximum-Head-Change  Column Row Layer    Maximum-Flux-Residual          L2-NORM 
          0                 1           2             4    7     1       0.9154769712E-02       4    7    1         0.4789737472E+00      0.1361817683E+01
          0                 2           2             4    7     1      -0.8901589062E-03       4    7    1        -0.4789746828E-01      0.1329520312E+00
          0                 3           1             4    7     1       0.6062759539E-04       4    7    1         0.3352823304E-02      0.9250513967E-02

    ------------------------------------------------
       NWT REQUIRED            3 OUTER ITERATIONS 
       AND A TOTAL OF          5 INNER ITERATIONS.
    ------------------------------------------------

 NO OUTPUT CONTROL FOR STRESS PERIOD   29   TIME STEP   11
 
 SOLVING FOR HEAD 
                                                   Max.-Head-Change                         Max.-Flux-Residual
  Residual-Control   Outer-Iter.   Inner-Iter.     Column Row Layer    Maximum-Head-Change  Column Row Layer    Maximum-Flux-Residual          L2-NORM 
          0                 1           2             4    7     1       0.9092035851E-02       4    7    1         0.4756823329E+00      0.1349720030E+01
          0                 2           2             4    7     1      -0.8840589826E-03       4    7    1        -0.4756832535E-01      0.1317855935E+00
          0                 3           1             4    7     1       0.6021213818E-04       4    7    1         0.3329783312E-02      0.9171640651E-02

    ------------------------------------------------
       NWT REQUIRED            3 OUTER ITERATIONS 
       AND A TOTAL OF          5 INNER ITERATIONS.
    ------------------------------------------------

 NO OUTPUT CONTROL FOR STRESS PERIOD   29   TIME STEP   12
 
 SOLVING FOR HEAD 
                                                   Max.-Head-Change                         Max.-Flux-Residual
  Residual-Control   Outer-Iter.   Inner-Iter.     Column Row Layer    Maximum-Head-Change  Column Row Layer    Maximum-Flux-Residual          L2-NORM 
          0                 1           2             4    7     1       0.9030035074E-02       4    7    1         0.4724295266E+00      0.1338405888E+01
          0                 2           2             4    7     1      -0.8780303212E-03       4    7    1        -0.4724304327E-01      0.1306940481E+00
          0                 3           1             4    7     1       0.5980153502E-04       4    7    1         0.3307013574E-02      0.9097513515E-02

    ------------------------------------------------
       NWT REQUIRED            3 OUTER ITERATIONS 
       AND A TOTAL OF          5 INNER ITERATIONS.
    ------------------------------------------------

 NO OUTPUT CONTROL FOR STRESS PERIOD   29   TIME STEP   13
 
 SOLVING FOR HEAD 
                                                   Max.-Head-Change                         Max.-Flux-Residual
  Residual-Control   Outer-Iter.   Inner-Iter.     Column Row Layer    Maximum-Head-Change  Column Row Layer    Maximum-Flux-Residual          L2-NORM 
          0                 1           2             4    7     1       0.8968487032E-02       4    7    1         0.4692000861E+00      0.1327765367E+01
          0                 2           2             4    7     1      -0.8720456531E-03       4    7    1        -0.4692009776E-01      0.1296679269E+00
          0                 3           1             4    7     1       0.5939392921E-04       4    7    1         0.3284407378E-02      0.9027957140E-02

    ------------------------------------------------
       NWT REQUIRED            3 OUTER ITERATIONS 
       AND A TOTAL OF          5 INNER ITERATIONS.
    ------------------------------------------------

 NO OUTPUT CONTROL FOR STRESS PERIOD   29   TIME STEP   14
 
 SOLVING FOR HEAD 
                                                   Max.-Head-Change                         Max.-Flux-Residual
  Residual-Control   Outer-Iter.   Inner-Iter.     Column Row Layer    Maximum-Head-Change  Column Row Layer    Maximum-Flux-Residual          L2-NORM 
          0                 1           2             4    7     1       0.8907660665E-02       4    7    1         0.4660087681E+00      0.1317709537E+01
          0                 2           2             4    7     1      -0.8661311505E-03       4    7    1        -0.4660096456E-01      0.1286977715E+00
          0                 3           1             4    7     1       0.5899110219E-04       4    7    1         0.3262068075E-02      0.8962058199E-02

    ------------------------------------------------
       NWT REQUIRED            3 OUTER ITERATIONS 
       AND A TOTAL OF          5 INNER ITERATIONS.
    ------------------------------------------------

 NO OUTPUT CONTROL FOR STRESS PERIOD   29   TIME STEP   15
 
 SOLVING FOR HEAD 
                                                   Max.-Head-Change                         Max.-Flux-Residual
  Residual-Control   Outer-Iter.   Inner-Iter.     Column Row Layer    Maximum-Head-Change  Column Row Layer    Maximum-Flux-Residual          L2-NORM 
          0                 1           2             4    7     1       0.8847414115E-02       4    7    1         0.4628475464E+00      0.1308167003E+01
          0                 2           2             4    7     1      -0.8602730144E-03       4    7    1        -0.4628484100E-01      0.1277774393E+00
          0                 3           1             4    7     1       0.5859211484E-04       4    7    1         0.3239939429E-02      0.8899551266E-02

    ------------------------------------------------
       NWT REQUIRED            3 OUTER ITERATIONS 
       AND A TOTAL OF          5 INNER ITERATIONS.
    ------------------------------------------------

 NO OUTPUT CONTROL FOR STRESS PERIOD   29   TIME STEP   16
 
 SOLVING FOR HEAD 
                                                   Max.-Head-Change                         Max.-Flux-Residual
  Residual-Control   Outer-Iter.   Inner-Iter.     Column Row Layer    Maximum-Head-Change  Column Row Layer    Maximum-Flux-Residual          L2-NORM 
          0                 1           2             4    7     1       0.8787607870E-02       4    7    1         0.4597090657E+00      0.1299067194E+01
          0                 2           2             4    7     1      -0.8544576755E-03       4    7    1        -0.4597099154E-01      0.1268997050E+00
          0                 3           1             4    7     1       0.5819604295E-04       4    7    1         0.3217969979E-02      0.8839537009E-02

    ------------------------------------------------
       NWT REQUIRED            3 OUTER ITERATIONS 
       AND A TOTAL OF          5 INNER ITERATIONS.
    ------------------------------------------------

 NO OUTPUT CONTROL FOR STRESS PERIOD   29   TIME STEP   17
 
 SOLVING FOR HEAD 
                                                   Max.-Head-Change                         Max.-Flux-Residual
  Residual-Control   Outer-Iter.   Inner-Iter.     Column Row Layer    Maximum-Head-Change  Column Row Layer    Maximum-Flux-Residual          L2-NORM 
          0                 1           2             4    7     1       0.8728509162E-02       4    7    1         0.4566080632E+00      0.1290362021E+01
          0                 2           2             4    7     1      -0.8487111216E-03       4    7    1        -0.4566088996E-01      0.1260592437E+00
          0                 3           1             4    7     1       0.5780465577E-04       4    7    1         0.3196262852E-02      0.8781824449E-02

    ------------------------------------------------
       NWT REQUIRED            3 OUTER ITERATIONS 
       AND A TOTAL OF          5 INNER ITERATIONS.
    ------------------------------------------------

 NO OUTPUT CONTROL FOR STRESS PERIOD   29   TIME STEP   18
 
 SOLVING FOR HEAD 
                                                   Max.-Head-Change                         Max.-Flux-Residual
  Residual-Control   Outer-Iter.   Inner-Iter.     Column Row Layer    Maximum-Head-Change  Column Row Layer    Maximum-Flux-Residual          L2-NORM 
          0                 1           2             4    7     1       0.8669973206E-02       4    7    1         0.4535364238E+00      0.1281997678E+01
          0                 2           2             4    7     1      -0.8430192783E-03       4    7    1        -0.4535372469E-01      0.1252521207E+00
          0                 3           1             4    7     1       0.5741699536E-04       4    7    1         0.3174761282E-02      0.8726582172E-02

    ------------------------------------------------
       NWT REQUIRED            3 OUTER ITERATIONS 
       AND A TOTAL OF          5 INNER ITERATIONS.
    ------------------------------------------------

 NO OUTPUT CONTROL FOR STRESS PERIOD   29   TIME STEP   19
 
 SOLVING FOR HEAD 
                                                   Max.-Head-Change                         Max.-Flux-Residual
  Residual-Control   Outer-Iter.   Inner-Iter.     Column Row Layer    Maximum-Head-Change  Column Row Layer    Maximum-Flux-Residual          L2-NORM 
          0                 1           2             4    7     1       0.8612126410E-02       4    7    1         0.4505012880E+00      0.1273928796E+01
          0                 2           2             4    7     1      -0.8373944440E-03       4    7    1        -0.4505020983E-01      0.1244733347E+00
          0                 3           1             4    7     1       0.5703389932E-04       4    7    1         0.3153515258E-02      0.8672916917E-02

    ------------------------------------------------
       NWT REQUIRED            3 OUTER ITERATIONS 
       AND A TOTAL OF          5 INNER ITERATIONS.
    ------------------------------------------------

 NO OUTPUT CONTROL FOR STRESS PERIOD   29   TIME STEP   20
 
 SOLVING FOR HEAD 
                                                   Max.-Head-Change                         Max.-Flux-Residual
  Residual-Control   Outer-Iter.   Inner-Iter.     Column Row Layer    Maximum-Head-Change  Column Row Layer    Maximum-Flux-Residual          L2-NORM 
          0                 1           2             4    7     1       0.8554692368E-02       4    7    1         0.4474872374E+00      0.1266136063E+01
          0                 2           2             4    7     1      -0.8318097229E-03       4    7    1        -0.4474880350E-01      0.1237202999E+00
          0                 3           1             4    7     1       0.5665353531E-04       4    7    1         0.3132416813E-02      0.8621122950E-02

    ------------------------------------------------
       NWT REQUIRED            3 OUTER ITERATIONS 
       AND A TOTAL OF          5 INNER ITERATIONS.
    ------------------------------------------------

 NO OUTPUT CONTROL FOR STRESS PERIOD   29   TIME STEP   21
 
 SOLVING FOR HEAD 
                                                   Max.-Head-Change                         Max.-Flux-Residual
  Residual-Control   Outer-Iter.   Inner-Iter.     Column Row Layer    Maximum-Head-Change  Column Row Layer    Maximum-Flux-Residual          L2-NORM 
          0                 1           2             4    7     1       0.8497804048E-02       4    7    1         0.4445019136E+00      0.1258579261E+01
          0                 2           2             4    7     1      -0.8262780511E-03       4    7    1        -0.4445026984E-01      0.1229902615E+00
          0                 3           1             4    7     1       0.5627678519E-04       4    7    1         0.3111519459E-02      0.8570971814E-02

    ------------------------------------------------
       NWT REQUIRED            3 OUTER ITERATIONS 
       AND A TOTAL OF          5 INNER ITERATIONS.
    ------------------------------------------------

 NO OUTPUT CONTROL FOR STRESS PERIOD   29   TIME STEP   22
 
 SOLVING FOR HEAD 
                                                   Max.-Head-Change                         Max.-Flux-Residual
  Residual-Control   Outer-Iter.   Inner-Iter.     Column Row Layer    Maximum-Head-Change  Column Row Layer    Maximum-Flux-Residual          L2-NORM 
          0                 1           2             4    7     1       0.8441593542E-02       4    7    1         0.4415522109E+00      0.1251238208E+01
          0                 2           2             4    7     1      -0.8208122965E-03       4    7    1        -0.4415529837E-01      0.1222810007E+00
          0                 3           1             4    7     1       0.5590452441E-04       4    7    1         0.3090871468E-02      0.8522027075E-02

    ------------------------------------------------
       NWT REQUIRED            3 OUTER ITERATIONS 
       AND A TOTAL OF          5 INNER ITERATIONS.
    ------------------------------------------------

 NO OUTPUT CONTROL FOR STRESS PERIOD   29   TIME STEP   23
 
 SOLVING FOR HEAD 
                                                   Max.-Head-Change                         Max.-Flux-Residual
  Residual-Control   Outer-Iter.   Inner-Iter.     Column Row Layer    Maximum-Head-Change  Column Row Layer    Maximum-Flux-Residual          L2-NORM 
          0                 1           2             4    7     1       0.8385913808E-02       4    7    1         0.4386303285E+00      0.1244089682E+01
          0                 2           2             4    7     1      -0.8153981382E-03       4    7    1        -0.4386310891E-01      0.1215901065E+00
          0                 3           1             4    7     1       0.5553577822E-04       4    7    1         0.3070418213E-02      0.8474978748E-02

    ------------------------------------------------
       NWT REQUIRED            3 OUTER ITERATIONS 
       AND A TOTAL OF          5 INNER ITERATIONS.
    ------------------------------------------------

 NO OUTPUT CONTROL FOR STRESS PERIOD   29   TIME STEP   24
 
 SOLVING FOR HEAD 
                                                   Max.-Head-Change                         Max.-Flux-Residual
  Residual-Control   Outer-Iter.   Inner-Iter.     Column Row Layer    Maximum-Head-Change  Column Row Layer    Maximum-Flux-Residual          L2-NORM 
          0                 1           2             4    7     1       0.8330758544E-02       4    7    1         0.4357359675E+00      0.1237114145E+01
          0                 2           2             4    7     1      -0.8100349649E-03       4    7    1        -0.4357367163E-01      0.1209155814E+00
          0                 3           1             4    7     1       0.5517050462E-04       4    7    1         0.3050157591E-02      0.8427776811E-02

    ------------------------------------------------
       NWT REQUIRED            3 OUTER ITERATIONS 
       AND A TOTAL OF          5 INNER ITERATIONS.
    ------------------------------------------------

 NO OUTPUT CONTROL FOR STRESS PERIOD   29   TIME STEP   25
 
 SOLVING FOR HEAD 
                                                   Max.-Head-Change                         Max.-Flux-Residual
  Residual-Control   Outer-Iter.   Inner-Iter.     Column Row Layer    Maximum-Head-Change  Column Row Layer    Maximum-Flux-Residual          L2-NORM 
          0                 1           2             4    7     1       0.8276123394E-02       4    7    1         0.4328688013E+00      0.1230292384E+01
          0                 2           2             4    7     1      -0.8047223625E-03       4    7    1        -0.4328695384E-01      0.1202559618E+00
          0                 3           1             4    7     1       0.5480867545E-04       4    7    1         0.3030087347E-02      0.8382189655E-02

    ------------------------------------------------
       NWT REQUIRED            3 OUTER ITERATIONS 
       AND A TOTAL OF          5 INNER ITERATIONS.
    ------------------------------------------------

 NO OUTPUT CONTROL FOR STRESS PERIOD   29   TIME STEP   26
 
 SOLVING FOR HEAD 
                                                   Max.-Head-Change                         Max.-Flux-Residual
  Residual-Control   Outer-Iter.   Inner-Iter.     Column Row Layer    Maximum-Head-Change  Column Row Layer    Maximum-Flux-Residual          L2-NORM 
          0                 1           2             4    7     1       0.8222003046E-02       4    7    1         0.4300286033E+00      0.1223611328E+01
          0                 2           2             4    7     1      -0.7994598148E-03       4    7    1        -0.4300293288E-01      0.1196096305E+00
          0                 3           1             4    7     1       0.5445025543E-04       4    7    1         0.3010205874E-02      0.8337461727E-02

    ------------------------------------------------
       NWT REQUIRED            3 OUTER ITERATIONS 
       AND A TOTAL OF          5 INNER ITERATIONS.
    ------------------------------------------------

 NO OUTPUT CONTROL FOR STRESS PERIOD   29   TIME STEP   27
 
 SOLVING FOR HEAD 
                                                   Max.-Head-Change                         Max.-Flux-Residual
  Residual-Control   Outer-Iter.   Inner-Iter.     Column Row Layer    Maximum-Head-Change  Column Row Layer    Maximum-Flux-Residual          L2-NORM 
          0                 1           2             4    7     1       0.8168528759E-02       4    7    1         0.4272224234E+00      0.1217070615E+01
          0                 2           2             4    7     1      -0.7942600828E-03       4    7    1        -0.4272231377E-01      0.1189768630E+00
          0                 3           1             4    7     1       0.5409611459E-04       4    7    1         0.2990562562E-02      0.8293740744E-02

    ------------------------------------------------
       NWT REQUIRED            3 OUTER ITERATIONS 
       AND A TOTAL OF          5 INNER ITERATIONS.
    ------------------------------------------------

 NO OUTPUT CONTROL FOR STRESS PERIOD   29   TIME STEP   28
 
 SOLVING FOR HEAD 
                                                   Max.-Head-Change                         Max.-Flux-Residual
  Residual-Control   Outer-Iter.   Inner-Iter.     Column Row Layer    Maximum-Head-Change  Column Row Layer    Maximum-Flux-Residual          L2-NORM 
          0                 1           2             4    7     1       0.8115418009E-02       4    7    1         0.4244350920E+00      0.1210644824E+01
          0                 2           2             4    7     1      -0.7890956839E-03       4    7    1        -0.4244357953E-01      0.1183549124E+00
          0                 3           1             4    7     1       0.5374438000E-04       4    7    1         0.2971051151E-02      0.8250629934E-02

    ------------------------------------------------
       NWT REQUIRED            3 OUTER ITERATIONS 
       AND A TOTAL OF          5 INNER ITERATIONS.
    ------------------------------------------------

 NO OUTPUT CONTROL FOR STRESS PERIOD   29   TIME STEP   29
 
 SOLVING FOR HEAD 
                                                   Max.-Head-Change                         Max.-Flux-Residual
  Residual-Control   Outer-Iter.   Inner-Iter.     Column Row Layer    Maximum-Head-Change  Column Row Layer    Maximum-Flux-Residual          L2-NORM 
          0                 1           2             4    7     1       0.8063023024E-02       4    7    1         0.4216812616E+00      0.1224633972E+01
          0                 2           2             4    7     1      -0.7840005908E-03       4    7    1        -0.4216819536E-01      0.1197386307E+00
          0                 3           1             4    7     1       0.5339737498E-04       4    7    1         0.2951774265E-02      0.8340506809E-02

    ------------------------------------------------
       NWT REQUIRED            3 OUTER ITERATIONS 
       AND A TOTAL OF          5 INNER ITERATIONS.
    ------------------------------------------------

 NO OUTPUT CONTROL FOR STRESS PERIOD   29   TIME STEP   30



 STREAM LISTING     PERIOD     29   STEP       30

 LAYER ROW COL. STREAM  RCH.  FLOW INTO     FLOW TO   FLOW OUT OF   OVRLND.     DIRECT     STREAM       STREAM     STREAM     STREAM   STREAMBED  STREAMBED
                SEG.NO.  NO.  STRM. RCH.    AQUIFER    STRM. RCH.    RUNOFF     PRECIP       ET          HEAD       DEPTH      WIDTH   CONDCTNC.   GRADIENT

   1    1    1     1     1    1.8581E+01  2.1154E-01   1.8369E+01  0.000E+00  0.000E+00  0.000E+00  1.09412E+03  1.075E+00  1.154E+01  5.191E-02  1.358E+00
   1    2    2     1     2    1.8369E+01  3.2630E-01   1.8043E+01  0.000E+00  0.000E+00  0.000E+00  1.08913E+03  1.070E+00  1.145E+01  8.016E-02  1.357E+00
   1    3    3     1     3    1.8043E+01  2.7702E-01   1.7766E+01  0.000E+00  0.000E+00  0.000E+00  1.08348E+03  1.065E+00  1.136E+01  6.814E-02  1.355E+00
   1    3    4     1     4    1.7766E+01  2.5406E-01   1.7512E+01  0.000E+00  0.000E+00  0.000E+00  1.07847E+03  1.061E+00  1.127E+01  6.256E-02  1.354E+00
   1    4    5     2     1    1.5512E+01  3.0432E-01   1.5207E+01  0.000E+00  0.000E+00  0.000E+00  1.07284E+03  9.015E-01  1.200E+01  7.800E-02  1.301E+00
   1    5    6     2     2    1.5207E+01  2.3352E-01   1.4974E+01  0.000E+00  0.000E+00  0.000E+00  1.06740E+03  8.920E-01  1.200E+01  6.000E-02  1.297E+00
   1    6    6     2     3    1.4974E+01  2.3302E-01   1.4741E+01  0.000E+00  0.000E+00  0.000E+00  1.06268E+03  8.837E-01  1.200E+01  6.000E-02  1.295E+00
   1    7    6     2     4    1.4741E+01  2.3252E-01   1.4508E+01  0.000E+00  0.000E+00  0.000E+00  1.05795E+03  8.754E-01  1.200E+01  6.000E-02  1.292E+00
   1    8    6     2     5    1.4508E+01  2.3202E-01   1.4276E+01  0.000E+00  0.000E+00  0.000E+00  1.05323E+03  8.670E-01  1.200E+01  6.000E-02  1.289E+00
   1    3    5     3     1    2.0000E+00  2.8252E-01   1.7175E+00  0.000E+00  0.000E+00  0.000E+00  1.07555E+03  1.909E+00  9.636E+00  7.227E-02  1.955E+00
   1    3    6     3     2    1.7175E+00  2.4905E-01   1.4684E+00  0.000E+00  0.000E+00  0.000E+00  1.07264E+03  1.727E+00  8.909E+00  6.682E-02  1.864E+00
   1    3    7     3     3    1.4684E+00  1.9718E-01   1.2712E+00  0.000E+00  0.000E+00  0.000E+00  1.06987E+03  1.555E+00  8.218E+00  5.547E-02  1.777E+00
   1    4    8     3     4    1.2712E+00  2.2567E-01   1.0456E+00  0.000E+00  0.000E+00  0.000E+00  1.06682E+03  1.364E+00  7.455E+00  6.709E-02  1.682E+00
   1    5    8     3     5    1.0456E+00  1.5790E-01   8.8768E-01  0.000E+00  0.000E+00  0.000E+00  1.06362E+03  1.164E+00  6.655E+00  4.991E-02  1.582E+00
   1    6    8     3     6    8.8768E-01  5.5980E-02   8.3170E-01  0.000E+00  0.000E+00  0.000E+00  1.06158E+03  1.036E+00  6.145E+00  1.844E-02  1.518E+00
   1    5   10     4     1    1.0000E+01  9.0919E-02   9.9091E+00  0.000E+00  0.000E+00  0.000E+00  1.07836E+03  6.368E-01  1.000E+01  2.500E-02  1.212E+00
   1    5    9     4     2    9.9091E+00  1.8158E-01   9.7275E+00  0.000E+00  0.000E+00  0.000E+00  1.07154E+03  6.315E-01  1.000E+01  5.000E-02  1.211E+00
   1    6    8     4     3    9.7275E+00  1.2689E-01   9.6006E+00  0.000E+00  0.000E+00  0.000E+00  1.06381E+03  6.256E-01  1.000E+01  3.500E-02  1.209E+00
   1    6    8     5     1    1.0432E+01  2.2686E-01   1.0205E+01  0.000E+00  0.000E+00  0.000E+00  1.05868E+03  6.790E-01  1.542E+01  6.166E-02  1.226E+00
   1    7    7     5     2    1.0205E+01  2.7894E-01   9.9265E+00  0.000E+00  0.000E+00  0.000E+00  1.05417E+03  6.732E-01  1.519E+01  7.594E-02  1.224E+00
   1    8    7     5     3    9.9265E+00  1.9221E-01   9.7343E+00  0.000E+00  0.000E+00  0.000E+00  1.04992E+03  6.676E-01  1.497E+01  5.241E-02  1.223E+00
   1    8    6     5     4    9.7343E+00  1.3577E-01   9.5985E+00  0.000E+00  0.000E+00  0.000E+00  1.04691E+03  6.637E-01  1.482E+01  3.706E-02  1.221E+00
   1    9    6     6     1    2.3875E+01  2.5104E-01   2.3624E+01  0.000E+00  0.000E+00  0.000E+00  1.04391E+03  1.184E+00  1.200E+01  6.000E-02  1.395E+00
   1   10    7     6     2    2.3624E+01  2.5059E-01   2.3373E+01  0.000E+00  0.000E+00  0.000E+00  1.03936E+03  1.177E+00  1.200E+01  6.000E-02  1.392E+00
   1   11    7     6     3    2.3373E+01  2.5014E-01   2.3123E+01  0.000E+00  0.000E+00  0.000E+00  1.03481E+03  1.169E+00  1.200E+01  6.000E-02  1.390E+00
   1   12    7     6     4    2.3123E+01  2.4969E-01   2.2873E+01  0.000E+00  0.000E+00  0.000E+00  1.03025E+03  1.161E+00  1.200E+01  6.000E-02  1.387E+00
   1   13    7     6     5    2.2873E+01  1.1140E-02   2.2862E+01  0.000E+00  0.000E+00  0.000E+00  1.02707E+03  1.157E+00  1.200E+01  2.400E-02  1.547E-01
   1   14    9     7     1    1.5000E+02  1.3826E+00   1.4862E+02  0.000E+00  0.000E+00  0.000E+00  1.03987E+03  2.288E+00  5.529E+01  5.593E-01  8.240E-01
   1   13    8     7     2    1.4862E+02  1.9838E+00   1.4663E+02  0.000E+00  0.000E+00  0.000E+00  1.03478E+03  2.279E+00  5.525E+01  6.147E-01  1.076E+00
   1   13    7     7     3    1.4663E+02  1.7230E+00   1.4491E+02  0.000E+00  0.000E+00  0.000E+00  1.02969E+03  2.269E+00  5.521E+01  5.584E-01  1.029E+00
   1   13    6     8     1    1.6777E+02  1.1545E+00   1.6662E+02  0.000E+00  0.000E+00  0.000E+00  1.02481E+03  2.934E+00  4.254E+01  4.335E-01  8.878E-01
   1   13    5     8     2    1.6662E+02  3.8899E-01   1.6623E+02  0.000E+00  0.000E+00  0.000E+00  1.01855E+03  2.929E+00  4.247E+01  4.328E-01  2.996E-01
   1   13    4     8     3    1.6623E+02 -1.6321E+00   1.6786E+02  0.000E+00  0.000E+00  0.000E+00  1.01231E+03  2.933E+00  4.253E+01  4.334E+00 -1.255E-01
   1   13    3     8     4    1.6786E+02 -3.2095E+00   1.7107E+02  0.000E+00  0.000E+00  0.000E+00  1.00607E+03  2.949E+00  4.276E+01  4.357E+00 -2.455E-01
   1   13    2     8     5    1.7107E+02 -2.3868E+00   1.7346E+02  0.000E+00  0.000E+00  0.000E+00  9.99842E+02  2.967E+00  4.302E+01  4.384E+00 -1.815E-01
   1   13    1     8     6    1.7346E+02 -1.9192E+00   1.7538E+02  0.000E+00  0.000E+00  0.000E+00  9.94856E+02  2.981E+00  4.322E+01  2.643E+00 -2.421E-01
   1    8    6     9     1    0.0000E+00  0.0000E+00   0.0000E+00  0.000E+00  0.000E+00  0.000E+00  1.07875E+03  0.000E+00  4.000E+00  0.000E+00  1.000E+00
   1    8    5     9     2    0.0000E+00  0.0000E+00   0.0000E+00  0.000E+00  0.000E+00  0.000E+00  1.07825E+03  0.000E+00  4.000E+00  0.000E+00  1.000E+00





UNSATURATED ZONE PACKAGE VOLUMETRIC BUDGET FOR  TIME STEP    30 STRESS PERIOD   29
  ------------------------------------------------------------------------------



     CUMULATIVE VOLUMES      L**3       RATES FOR THIS TIME STEP      L**3/T
     ------------------                 ------------------------

           IN:                                      IN:
           ---                                      ---
        INFILTRATION =  1045602700.7679          INFILTRATION =           0.8475

          OUT:                                     OUT:
          ----                                     ----
              UZF ET =   870705525.9118                UZF ET =           0.8475
        UZF RECHARGE =     1024185.3264          UZF RECHARGE =           0.0408

            IN - OUT =   173872989.5297              IN - OUT =      -4.0801E-02

          STORAGE:                                 STORAGE:
          --------                                 --------
      STORAGE CHANGE =   173873466.0377        STORAGE CHANGE =      -4.0801E-02

 PERCENT DISCREPANCY IS DIFFERENCE BETWEEN IN-OUT MINUS CHANGE IN STORAGE
 DIVIDED BY THE AVERAGE OF IN AND OUT TIMES 100

 PERCENT DISCREPANCY =          -0.00     PERCENT DISCREPANCY =           0.00






1
  VOLUMETRIC BUDGET FOR AGRICULTURAL FIELDS AT  END OF TIME STEP   30, STRESS PERIOD  29
  ------------------------------------------------------------------------------

     CUMULATIVE VOLUMES      L**3       RATES FOR THIS TIME STEP      L**3/T
     ------------------                 ------------------------

           IN:                                      IN:
           ---                                      ---
               AG WELLS  =   665535360.0000                 AG WELLS  =           0.0000
      DIVERSION SEGMENTS =   317583232.0000        DIVERSION SEGMENTS =           0.0000
           GW IRRIGATION =           0.0000             GW IRRIGATION =           0.0000
           SW IRRIGATION =           0.0000             SW IRRIGATION =           0.0000
        SYSTEM LOSSES GW =           0.0000          SYSTEM LOSSES GW =           0.0000
        SYSTEM LOSSES SW =           0.0000          SYSTEM LOSSES SW =           0.0000

                TOTAL IN =   983118592.0000                  TOTAL IN =           0.0000

          OUT:                                     OUT:
          ----                                     ----
               AG WELLS  =           0.0000                 AG WELLS  =           0.0000
      DIVERSION SEGMENTS =           0.0000        DIVERSION SEGMENTS =           0.0000
           GW IRRIGATION =   665535360.0000             GW IRRIGATION =           0.0000
           SW IRRIGATION =   317589344.0000             SW IRRIGATION =           0.0000
        SYSTEM LOSSES GW =           0.0000          SYSTEM LOSSES GW =           0.0000
        SYSTEM LOSSES SW =           0.0000          SYSTEM LOSSES SW =           0.0000

               TOTAL OUT =   983124736.0000                 TOTAL OUT =           0.0000

                IN - OUT =       -6144.0000                  IN - OUT =           0.0000

     PERCENT DISCREPANCY =          -0.00         PERCENT DISCREPANCY =           0.00



1
  VOLUMETRIC BUDGET FOR ENTIRE MODEL AT END OF TIME STEP   30, STRESS PERIOD  29
  ------------------------------------------------------------------------------

     CUMULATIVE VOLUMES      L**3       RATES FOR THIS TIME STEP      L**3/T
     ------------------                 ------------------------

           IN:                                      IN:
           ---                                      ---
             STORAGE     =  1016980672.0000               STORAGE     =           2.6714
       CONSTANT HEAD     =           0.0000         CONSTANT HEAD     =           0.0000
     HEAD DEP BOUNDS     =    21248444.0000       HEAD DEP BOUNDS     =           0.2889
      STREAM LEAKAGE     =   869359168.0000        STREAM LEAKAGE     =          12.3513
        UZF RECHARGE     =     1024185.4375          UZF RECHARGE     =       4.0801E-02
               GW ET     =           0.0000                 GW ET     =           0.0000
     SURFACE LEAKAGE     =           0.0000       SURFACE LEAKAGE     =           0.0000
           AG WELLS      =           0.0000             AG WELLS      =           0.0000

                TOTAL IN =  1908612480.0000                  TOTAL IN =          15.3524

          OUT:                                     OUT:
          ----                                     ----
             STORAGE     =   479826816.0000               STORAGE     =           5.9176
       CONSTANT HEAD     =           0.0000         CONSTANT HEAD     =           0.0000
     HEAD DEP BOUNDS     =    21234074.0000       HEAD DEP BOUNDS     =           0.2881
      STREAM LEAKAGE     =   742029184.0000        STREAM LEAKAGE     =           9.1476
        UZF RECHARGE     =           0.0000          UZF RECHARGE     =           0.0000
               GW ET     =           0.0000                 GW ET     =           0.0000
     SURFACE LEAKAGE     =           0.0000       SURFACE LEAKAGE     =           0.0000
           AG WELLS      =   665535360.0000             AG WELLS      =           0.0000

               TOTAL OUT =  1908625408.0000                 TOTAL OUT =          15.3532

                IN - OUT =      -12928.0000                  IN - OUT =      -8.1825E-04

     PERCENT DISCREPANCY =          -0.00         PERCENT DISCREPANCY =          -0.01






         TIME SUMMARY AT END OF TIME STEP   30 IN STRESS PERIOD   29
                    SECONDS     MINUTES      HOURS       DAYS        YEARS
                    -----------------------------------------------------------
   TIME STEP LENGTH  87667.      1461.1      24.352      1.0147     2.77799E-03
 STRESS PERIOD TIME 2.63000E+06  43833.      730.56      30.440     8.33397E-02
         TOTAL TIME 7.37266E+07 1.22878E+06  20480.      853.32      2.3363    
1
1
                            STRESS PERIOD NO.   30, LENGTH =   2630000.    
                            -----------------------------------------------

                              NUMBER OF TIME STEPS =    30

                               MULTIPLIER FOR DELT =     1.000

                            INITIAL TIME STEP SIZE =   87666.66    

 REUSING NON-PARAMETER GHB CELLS FROM LAST STRESS PERIOD

      2 GHB CELLS

 REUSING STREAM SEGMENT DATA FROM LAST STRESS PERIOD



            AREAL INFILTRATION RATE
 READING ON UNIT   19 WITH FORMAT: (FREE)              

            1           2           3           4           5           6           7           8           9          10
 ........................................................................................................................
   1   1.0000E-10  2.0000E-10   0.000       0.000       0.000       0.000       0.000       0.000       0.000       0.000    
   2   2.0000E-10  1.0000E-10  2.0000E-10   0.000       0.000      8.0000E-10  8.0000E-10  5.0000E-10   0.000       0.000    
   3    0.000      5.0000E-10  1.0000E-10  1.0000E-10  8.0000E-10  8.0000E-10  5.0000E-10  5.0000E-10   0.000       0.000    
   4   8.0000E-10  5.0000E-10  1.0000E-10  1.0000E-10  1.0000E-10  1.0000E-10  1.0000E-10  1.0000E-10  2.0000E-10   0.000    
   5   8.0000E-10  5.0000E-10  1.0000E-10  1.0000E-10  1.0000E-10  1.0000E-10  1.0000E-10  1.0000E-10  1.0000E-10  1.0000E-10
   6   8.0000E-10  5.0000E-10  5.0000E-10  2.0000E-10  2.0000E-10  1.0000E-10  1.0000E-10  1.0000E-10  1.0000E-10  5.0000E-10
   7   8.0000E-10  5.0000E-10  5.0000E-10  2.0000E-10  2.0000E-10  1.0000E-10  1.0000E-10  2.0000E-10  2.0000E-10   0.000    
   8    0.000      5.0000E-10  5.0000E-10  2.0000E-10  2.0000E-10  1.0000E-10  1.0000E-10  2.0000E-10  5.0000E-10   0.000    
   9    0.000      5.0000E-10  5.0000E-10  2.0000E-10  2.0000E-10  1.0000E-10  1.0000E-10  2.0000E-10  5.0000E-10   0.000    
  10    0.000      5.0000E-10  5.0000E-10  2.0000E-10  2.0000E-10  1.0000E-10  1.0000E-10  2.0000E-10  5.0000E-10  8.0000E-10
  11    0.000      1.0000E-10  1.0000E-10  1.0000E-10  1.0000E-10  1.0000E-10  1.0000E-10  2.0000E-10  5.0000E-10   0.000    
  12   1.0000E-10  1.0000E-10  1.0000E-10  1.0000E-10  1.0000E-10  1.0000E-10  1.0000E-10  1.0000E-10  2.0000E-10   0.000    
  13   1.0000E-10  1.0000E-10  2.0000E-10  2.0000E-10  2.0000E-10  2.0000E-10  2.0000E-10  1.0000E-10  1.0000E-10   0.000    
  14    0.000      2.0000E-10  5.0000E-10  5.0000E-10  5.0000E-10  5.0000E-10  5.0000E-10  2.0000E-10  1.0000E-10   0.000    
  15    0.000       0.000      8.0000E-10  8.0000E-10  8.0000E-10  8.0000E-10   0.000       0.000       0.000       0.000    

                  ET RATE =  5.000000E-08

 USING ET EXTINCTION DEPTH FROM PREVIOUS STRESS PERIOD. CURRENT PERIOD IS:      30

 USING EXTINCTION WATER CONTENT FROM PREVIOUS STRESS PERIOD. CURRENT PERIOD IS:      30

 USING AIR ENTRY PRESSURE FROM PREVIOUS STRESS PERIOD. CURRENT PERIOD IS:      30

 USING ROOT PRESSURE HEAD FROM PREVIOUS STRESS PERIOD. CURRENT PERIOD IS:      30

 USING ROOT ACTIVITY FROM PREVIOUS STRESS PERIOD. CURRENT PERIOD IS:      30

 PROCESSING AG STRESS PERIOD DATA

 READING AG STRESS PERIOD DATA

 READING IRRIGATION SEGMENT

 READING IRRIGATION WELL

 READING SUPPLEMENTAL WELL

 END PROCESSING AG STRESS PERIOD DATA OPTIONS
 
 SOLVING FOR HEAD 
                                                   Max.-Head-Change                         Max.-Flux-Residual
  Residual-Control   Outer-Iter.   Inner-Iter.     Column Row Layer    Maximum-Head-Change  Column Row Layer    Maximum-Flux-Residual          L2-NORM 
          0                 1           2             4   13     1       0.9917063848E-02       4   13    1         0.5705417942E+00      0.1557927128E+01
          0                 2           2             4    7     1      -0.2396235803E-01       4    7    1        -0.1286895796E+01      0.3146358779E+01
          0                 3           2             4    7     1       0.2418433383E-01       4    7    1         0.1335082164E+01      0.3264045581E+01
          0                 4           2             4    7     1      -0.9620055571E-03       4    7    1        -0.5460553089E-01      0.1239492768E+00
          0                 5           1             5    8     1      -0.2225057392E-04       5    8    1        -0.1355357434E-02      0.2180836977E-02

    ------------------------------------------------
       NWT REQUIRED            5 OUTER ITERATIONS 
       AND A TOTAL OF          9 INNER ITERATIONS.
    ------------------------------------------------

 NO OUTPUT CONTROL FOR STRESS PERIOD   30   TIME STEP    1
 
 SOLVING FOR HEAD 
                                                   Max.-Head-Change                         Max.-Flux-Residual
  Residual-Control   Outer-Iter.   Inner-Iter.     Column Row Layer    Maximum-Head-Change  Column Row Layer    Maximum-Flux-Residual          L2-NORM 
          0                 1           2             4   13     1       0.9564862994E-02       4   13    1         0.5501698388E+00      0.1536919045E+01
          0                 2           2             4   13     1      -0.9208784153E-03       4   13    1        -0.5446253836E-01      0.1500728610E+00
          0                 3           1             4   13     1       0.6182921707E-04       4   13    1         0.3759744177E-02      0.1033555115E-01

    ------------------------------------------------
       NWT REQUIRED            3 OUTER ITERATIONS 
       AND A TOTAL OF          5 INNER ITERATIONS.
    ------------------------------------------------

 NO OUTPUT CONTROL FOR STRESS PERIOD   30   TIME STEP    2
 
 SOLVING FOR HEAD 
                                                   Max.-Head-Change                         Max.-Flux-Residual
  Residual-Control   Outer-Iter.   Inner-Iter.     Column Row Layer    Maximum-Head-Change  Column Row Layer    Maximum-Flux-Residual          L2-NORM 
          0                 1           2             4   13     1       0.8647422667E-02       4   13    1         0.4971571482E+00      0.1489832011E+01
          0                 2           2             4    7     1      -0.2392226632E-01       4    7    1        -0.1284738732E+01      0.3140254257E+01
          0                 3           2             4    7     1       0.2415217722E-01       4    7    1         0.1333307184E+01      0.3259796040E+01
          0                 4           2             4    7     1      -0.9607279006E-03       4    7    1        -0.5453293248E-01      0.1237996308E+00
          0                 5           1             5    8     1      -0.2259986990E-04       5    8    1        -0.1376267611E-02      0.2191717126E-02

    ------------------------------------------------
       NWT REQUIRED            5 OUTER ITERATIONS 
       AND A TOTAL OF          9 INNER ITERATIONS.
    ------------------------------------------------

 NO OUTPUT CONTROL FOR STRESS PERIOD   30   TIME STEP    3
 
 SOLVING FOR HEAD 
                                                   Max.-Head-Change                         Max.-Flux-Residual
  Residual-Control   Outer-Iter.   Inner-Iter.     Column Row Layer    Maximum-Head-Change  Column Row Layer    Maximum-Flux-Residual          L2-NORM 
          0                 1           2             4   13     1       0.8419578218E-02       4   13    1         0.4839918858E+00      0.1474612003E+01
          0                 2           2             4   13     1      -0.8105963314E-03       4   13    1        -0.4791016336E-01      0.1440327557E+00
          0                 3           1             4   13     1       0.5441759653E-04       4   13    1         0.3306952942E-02      0.9934825626E-02

    ------------------------------------------------
       NWT REQUIRED            3 OUTER ITERATIONS 
       AND A TOTAL OF          5 INNER ITERATIONS.
    ------------------------------------------------

 NO OUTPUT CONTROL FOR STRESS PERIOD   30   TIME STEP    4
 
 SOLVING FOR HEAD 
                                                   Max.-Head-Change                         Max.-Flux-Residual
  Residual-Control   Outer-Iter.   Inner-Iter.     Column Row Layer    Maximum-Head-Change  Column Row Layer    Maximum-Flux-Residual          L2-NORM 
          0                 1           2             4    7     1       0.7811672016E-02       4   13    1         0.4376291705E+00      0.1434702939E+01
          0                 2           2             4    7     1      -0.2391323145E-01       4    7    1        -0.1284249800E+01      0.3138474313E+01
          0                 3           2             4    7     1       0.2415209167E-01       4    7    1         0.1333302642E+01      0.3259908235E+01
          0                 4           2             4    7     1      -0.9607264391E-03       4    7    1        -0.5453274669E-01      0.1238212657E+00
          0                 5           1             5    8     1      -0.2309377702E-04       5    8    1        -0.1405874442E-02      0.2210591763E-02

    ------------------------------------------------
       NWT REQUIRED            5 OUTER ITERATIONS 
       AND A TOTAL OF          9 INNER ITERATIONS.
    ------------------------------------------------

 NO OUTPUT CONTROL FOR STRESS PERIOD   30   TIME STEP    5
 
 SOLVING FOR HEAD 
                                                   Max.-Head-Change                         Max.-Flux-Residual
  Residual-Control   Outer-Iter.   Inner-Iter.     Column Row Layer    Maximum-Head-Change  Column Row Layer    Maximum-Flux-Residual          L2-NORM 
          0                 1           2             4    7     1       0.7763492026E-02       4   13    1         0.4303233351E+00      0.1423820100E+01
          0                 2           2             4    7     1      -0.7548716147E-03       4   13    1        -0.4259615241E-01      0.1391092051E+00
          0                 3           1             4    7     1       0.5141358979E-04       4   13    1         0.2939800596E-02      0.9607935040E-02

    ------------------------------------------------
       NWT REQUIRED            3 OUTER ITERATIONS 
       AND A TOTAL OF          5 INNER ITERATIONS.
    ------------------------------------------------

 NO OUTPUT CONTROL FOR STRESS PERIOD   30   TIME STEP    6
 
 SOLVING FOR HEAD 
                                                   Max.-Head-Change                         Max.-Flux-Residual
  Residual-Control   Outer-Iter.   Inner-Iter.     Column Row Layer    Maximum-Head-Change  Column Row Layer    Maximum-Flux-Residual          L2-NORM 
          0                 1           2             4    7     1       0.7715736817E-02       4    7    1         0.4033899342E+00      0.1389575270E+01
          0                 2           2             4    7     1      -0.2390413131E-01       4    7    1        -0.1283757629E+01      0.3136860417E+01
          0                 3           2             4    7     1       0.2415169744E-01       4    7    1         0.1333281065E+01      0.3259984973E+01
          0                 4           2             4    7     1      -0.9607127632E-03       4    7    1        -0.5453186418E-01      0.1238427371E+00
          0                 5           1             5    8     1      -0.2360312912E-04       5    8    1        -0.1436406802E-02      0.2230179521E-02

    ------------------------------------------------
       NWT REQUIRED            5 OUTER ITERATIONS 
       AND A TOTAL OF          9 INNER ITERATIONS.
    ------------------------------------------------

 NO OUTPUT CONTROL FOR STRESS PERIOD   30   TIME STEP    7
 
 SOLVING FOR HEAD 
                                                   Max.-Head-Change                         Max.-Flux-Residual
  Residual-Control   Outer-Iter.   Inner-Iter.     Column Row Layer    Maximum-Head-Change  Column Row Layer    Maximum-Flux-Residual          L2-NORM 
          0                 1           2             4    7     1       0.7668711237E-02       4    7    1         0.4009149839E+00      0.1381918437E+01
          0                 2           2             4    7     1      -0.7456543928E-03       4    7    1        -0.4009159566E-01      0.1350478464E+00
          0                 3           1             4    7     1       0.5078585618E-04       4    7    1         0.2806412313E-02      0.9338453957E-02

    ------------------------------------------------
       NWT REQUIRED            3 OUTER ITERATIONS 
       AND A TOTAL OF          5 INNER ITERATIONS.
    ------------------------------------------------

 NO OUTPUT CONTROL FOR STRESS PERIOD   30   TIME STEP    8
 
 SOLVING FOR HEAD 
                                                   Max.-Head-Change                         Max.-Flux-Residual
  Residual-Control   Outer-Iter.   Inner-Iter.     Column Row Layer    Maximum-Head-Change  Column Row Layer    Maximum-Flux-Residual          L2-NORM 
          0                 1           2             4    7     1       0.7622211734E-02       4    7    1         0.3984682098E+00      0.1352153965E+01
          0                 2           2             4    7     1      -0.2389526144E-01       4    7    1        -0.1283278091E+01      0.3135417124E+01
          0                 3           2             4    7     1       0.2415131484E-01       4    7    1         0.1333260135E+01      0.3260069590E+01
          0                 4           2             4    7     1      -0.9606996218E-03       4    7    1        -0.5453100806E-01      0.1238662244E+00
          0                 5           1             5    8     1      -0.2413067282E-04       5    8    1        -0.1468029652E-02      0.2250116983E-02

    ------------------------------------------------
       NWT REQUIRED            5 OUTER ITERATIONS 
       AND A TOTAL OF          9 INNER ITERATIONS.
    ------------------------------------------------

 NO OUTPUT CONTROL FOR STRESS PERIOD   30   TIME STEP    9
 
 SOLVING FOR HEAD 
                                                   Max.-Head-Change                         Max.-Flux-Residual
  Residual-Control   Outer-Iter.   Inner-Iter.     Column Row Layer    Maximum-Head-Change  Column Row Layer    Maximum-Flux-Residual          L2-NORM 
          0                 1           2             4    7     1       0.7576406020E-02       4    7    1         0.3960583445E+00      0.1346891326E+01
          0                 2           2             4    7     1      -0.7366780454E-03       4    7    1        -0.3960592980E-01      0.1316518639E+00
          0                 3           1             4    7     1       0.5017452297E-04       4    7    1         0.2772415708E-02      0.9111551565E-02

    ------------------------------------------------
       NWT REQUIRED            3 OUTER ITERATIONS 
       AND A TOTAL OF          5 INNER ITERATIONS.
    ------------------------------------------------

 NO OUTPUT CONTROL FOR STRESS PERIOD   30   TIME STEP   10
 
 SOLVING FOR HEAD 
                                                   Max.-Head-Change                         Max.-Flux-Residual
  Residual-Control   Outer-Iter.   Inner-Iter.     Column Row Layer    Maximum-Head-Change  Column Row Layer    Maximum-Flux-Residual          L2-NORM 
          0                 1           2             4    7     1       0.7531090579E-02       4    7    1         0.3936748362E+00      0.1320689235E+01
          0                 2           2             4    7     1      -0.2388662562E-01       4    7    1        -0.1282811388E+01      0.3134111795E+01
          0                 3           2             4    7     1       0.2415094839E-01       4    7    1         0.1333240102E+01      0.3260159996E+01
          0                 4           2             4    7     1      -0.9606871596E-03       4    7    1        -0.5453018870E-01      0.1238911084E+00
          0                 5           1             5    8     1      -0.2466727405E-04       5    8    1        -0.1500195477E-02      0.2271057375E-02

    ------------------------------------------------
       NWT REQUIRED            5 OUTER ITERATIONS 
       AND A TOTAL OF          9 INNER ITERATIONS.
    ------------------------------------------------

 NO OUTPUT CONTROL FOR STRESS PERIOD   30   TIME STEP   11
 
 SOLVING FOR HEAD 
                                                   Max.-Head-Change                         Max.-Flux-Residual
  Residual-Control   Outer-Iter.   Inner-Iter.     Column Row Layer    Maximum-Head-Change  Column Row Layer    Maximum-Flux-Residual          L2-NORM 
          0                 1           2             4    7     1       0.7486299088E-02       4    7    1         0.3913190170E+00      0.1317205643E+01
          0                 2           2             4    7     1      -0.7279155774E-03       4    7    1        -0.3913199523E-01      0.1287733782E+00
          0                 3           1             4    7     1       0.4957775332E-04       4    7    1         0.2739240310E-02      0.8919705300E-02

    ------------------------------------------------
       NWT REQUIRED            3 OUTER ITERATIONS 
       AND A TOTAL OF          5 INNER ITERATIONS.
    ------------------------------------------------

 NO OUTPUT CONTROL FOR STRESS PERIOD   30   TIME STEP   12
 
 SOLVING FOR HEAD 
                                                   Max.-Head-Change                         Max.-Flux-Residual
  Residual-Control   Outer-Iter.   Inner-Iter.     Column Row Layer    Maximum-Head-Change  Column Row Layer    Maximum-Flux-Residual          L2-NORM 
          0                 1           2             4    7     1       0.7442111853E-02       4    7    1         0.3889954380E+00      0.1293854240E+01
          0                 2           2             4    7     1      -0.2387819398E-01       4    7    1        -0.1282355844E+01      0.3132921881E+01
          0                 3           2             4    7     1       0.2415059174E-01       4    7    1         0.1333220612E+01      0.3260255530E+01
          0                 4           2             4    7     1      -0.9606751274E-03       4    7    1        -0.5452939153E-01      0.1239176647E+00
          0                 5           1             5    8     1      -0.2521377923E-04       5    8    1        -0.1532955031E-02      0.2292139096E-02

    ------------------------------------------------
       NWT REQUIRED            5 OUTER ITERATIONS 
       AND A TOTAL OF          9 INNER ITERATIONS.
    ------------------------------------------------

 NO OUTPUT CONTROL FOR STRESS PERIOD   30   TIME STEP   13
 
 SOLVING FOR HEAD 
                                                   Max.-Head-Change                         Max.-Flux-Residual
  Residual-Control   Outer-Iter.   Inner-Iter.     Column Row Layer    Maximum-Head-Change  Column Row Layer    Maximum-Flux-Residual          L2-NORM 
          0                 1           2             4    7     1       0.7398283143E-02       4    7    1         0.3866907691E+00      0.1291707742E+01
          0                 2           2             4    7     1      -0.7193565463E-03       4    7    1        -0.3866916871E-01      0.1263008771E+00
          0                 3           1             4    7     1       0.4899483475E-04       4    7    1         0.2706842444E-02      0.8754175539E-02

    ------------------------------------------------
       NWT REQUIRED            3 OUTER ITERATIONS 
       AND A TOTAL OF          5 INNER ITERATIONS.
    ------------------------------------------------

 NO OUTPUT CONTROL FOR STRESS PERIOD   30   TIME STEP   14
 
 SOLVING FOR HEAD 
                                                   Max.-Head-Change                         Max.-Flux-Residual
  Residual-Control   Outer-Iter.   Inner-Iter.     Column Row Layer    Maximum-Head-Change  Column Row Layer    Maximum-Flux-Residual          L2-NORM 
          0                 1           2             4    7     1       0.7355166811E-02       4    7    1         0.3844244521E+00      0.1270632990E+01
          0                 2           2             4    7     1      -0.2386995813E-01       4    7    1        -0.1281911022E+01      0.3131827096E+01
          0                 3           2             4    7     1       0.2415024644E-01       4    7    1         0.1333201754E+01      0.3260355057E+01
          0                 4           2             4    7     1      -0.9606635757E-03       4    7    1        -0.5452862019E-01      0.1239454587E+00
          0                 5           1             5    8     1      -0.2576740385E-04       5    8    1        -0.1566141346E-02      0.2315244219E-02

    ------------------------------------------------
       NWT REQUIRED            5 OUTER ITERATIONS 
       AND A TOTAL OF          9 INNER ITERATIONS.
    ------------------------------------------------

 NO OUTPUT CONTROL FOR STRESS PERIOD   30   TIME STEP   15
 
 SOLVING FOR HEAD 
                                                   Max.-Head-Change                         Max.-Flux-Residual
  Residual-Control   Outer-Iter.   Inner-Iter.     Column Row Layer    Maximum-Head-Change  Column Row Layer    Maximum-Flux-Residual          L2-NORM 
          0                 1           2             4    7     1       0.7312383818E-02       4    7    1         0.3821752905E+00      0.1269510966E+01
          0                 2           2             4    7     1      -0.7110034250E-03       4    7    1        -0.3821761918E-01      0.1241492165E+00
          0                 3           1             4    7     1       0.4842593764E-04       4    7    1         0.2675233984E-02      0.8610580976E-02

    ------------------------------------------------
       NWT REQUIRED            3 OUTER ITERATIONS 
       AND A TOTAL OF          5 INNER ITERATIONS.
    ------------------------------------------------

 NO OUTPUT CONTROL FOR STRESS PERIOD   30   TIME STEP   16
 
 SOLVING FOR HEAD 
                                                   Max.-Head-Change                         Max.-Flux-Residual
  Residual-Control   Outer-Iter.   Inner-Iter.     Column Row Layer    Maximum-Head-Change  Column Row Layer    Maximum-Flux-Residual          L2-NORM 
          0                 1           2             4    7     1       0.7270151311E-02       4    7    1         0.3799558813E+00      0.1250272096E+01
          0                 2           2             4    7     1      -0.2386190570E-01       4    7    1        -0.1281476204E+01      0.3130812785E+01
          0                 3           2             4    7     1       0.2414990947E-01       4    7    1         0.1333183357E+01      0.3260456825E+01
          0                 4           2             4    7     1      -0.9606523611E-03       4    7    1        -0.5452786774E-01      0.1239744572E+00
          0                 5           1             5    8     1      -0.2632237422E-04       5    8    1        -0.1599408454E-02      0.2337874301E-02

    ------------------------------------------------
       NWT REQUIRED            5 OUTER ITERATIONS 
       AND A TOTAL OF          9 INNER ITERATIONS.
    ------------------------------------------------

 NO OUTPUT CONTROL FOR STRESS PERIOD   30   TIME STEP   17
 
 SOLVING FOR HEAD 
                                                   Max.-Head-Change                         Max.-Flux-Residual
  Residual-Control   Outer-Iter.   Inner-Iter.     Column Row Layer    Maximum-Head-Change  Column Row Layer    Maximum-Flux-Residual          L2-NORM 
          0                 1           2             4    7     1       0.7228366375E-02       4    7    1         0.3777598560E+00      0.1249931250E+01
          0                 2           2             4    7     1      -0.7028333807E-03       4    7    1        -0.3777607416E-01      0.1222498434E+00
          0                 3           1             4    7     1       0.4786950659E-04       4    7    1         0.2644325825E-02      0.8482310810E-02

    ------------------------------------------------
       NWT REQUIRED            3 OUTER ITERATIONS 
       AND A TOTAL OF          5 INNER ITERATIONS.
    ------------------------------------------------

 NO OUTPUT CONTROL FOR STRESS PERIOD   30   TIME STEP   18
 
 SOLVING FOR HEAD 
                                                   Max.-Head-Change                         Max.-Flux-Residual
  Residual-Control   Outer-Iter.   Inner-Iter.     Column Row Layer    Maximum-Head-Change  Column Row Layer    Maximum-Flux-Residual          L2-NORM 
          0                 1           2             4    7     1       0.7187108776E-02       4    7    1         0.3755922094E+00      0.1232188870E+01
          0                 2           2             4    7     1      -0.2385404314E-01       4    7    1        -0.1281051756E+01      0.3129867052E+01
          0                 3           2             4    7     1       0.2414958344E-01       4    7    1         0.1333165567E+01      0.3260561900E+01
          0                 4           2             4    7     1      -0.9606416016E-03       4    7    1        -0.5452714008E-01      0.1240044916E+00
          0                 5           1             5    8     1      -0.2688231999E-04       5    8    1        -0.1632973855E-02      0.2360657292E-02

    ------------------------------------------------
       NWT REQUIRED            5 OUTER ITERATIONS 
       AND A TOTAL OF          9 INNER ITERATIONS.
    ------------------------------------------------

 NO OUTPUT CONTROL FOR STRESS PERIOD   30   TIME STEP   19
 
 SOLVING FOR HEAD 
                                                   Max.-Head-Change                         Max.-Flux-Residual
  Residual-Control   Outer-Iter.   Inner-Iter.     Column Row Layer    Maximum-Head-Change  Column Row Layer    Maximum-Flux-Residual          L2-NORM 
          0                 1           2             4    7     1       0.7146271291E-02       4    7    1         0.3734467164E+00      0.1232456419E+01
          0                 2           2             4    7     1      -0.6948503326E-03       4    7    1        -0.3734475867E-01      0.1205549934E+00
          0                 3           1             4    7     1       0.4732580939E-04       4    7    1         0.2614133746E-02      0.8367310179E-02

    ------------------------------------------------
       NWT REQUIRED            3 OUTER ITERATIONS 
       AND A TOTAL OF          5 INNER ITERATIONS.
    ------------------------------------------------

 NO OUTPUT CONTROL FOR STRESS PERIOD   30   TIME STEP   20
 
 SOLVING FOR HEAD 
                                                   Max.-Head-Change                         Max.-Flux-Residual
  Residual-Control   Outer-Iter.   Inner-Iter.     Column Row Layer    Maximum-Head-Change  Column Row Layer    Maximum-Flux-Residual          L2-NORM 
          0                 1           2             4    7     1       0.7105937795E-02       4    7    1         0.3713282087E+00      0.1215938380E+01
          0                 2           2             4    7     1      -0.2384635833E-01       4    7    1        -0.1280637037E+01      0.3128979502E+01
          0                 3           2             4    7     1       0.2414926534E-01       4    7    1         0.1333148220E+01      0.3260668189E+01
          0                 4           2             4    7     1      -0.9606311575E-03       4    7    1        -0.5452643054E-01      0.1240355361E+00
          0                 5           1             5    8     1      -0.2744198668E-04       5    8    1        -0.1666522580E-02      0.2383938269E-02

    ------------------------------------------------
       NWT REQUIRED            5 OUTER ITERATIONS 
       AND A TOTAL OF          9 INNER ITERATIONS.
    ------------------------------------------------

 NO OUTPUT CONTROL FOR STRESS PERIOD   30   TIME STEP   21
 
 SOLVING FOR HEAD 
                                                   Max.-Head-Change                         Max.-Flux-Residual
  Residual-Control   Outer-Iter.   Inner-Iter.     Column Row Layer    Maximum-Head-Change  Column Row Layer    Maximum-Flux-Residual          L2-NORM 
          0                 1           2             4    7     1       0.7065869519E-02       4    7    1         0.3692232868E+00      0.1216692868E+01
          0                 2           2             4    7     1      -0.6870320026E-03       4    7    1        -0.3692241426E-01      0.1190263071E+00
          0                 3           1             4    7     1       0.4679332837E-04       4    7    1         0.2584569619E-02      0.8264103699E-02

    ------------------------------------------------
       NWT REQUIRED            3 OUTER ITERATIONS 
       AND A TOTAL OF          5 INNER ITERATIONS.
    ------------------------------------------------

 NO OUTPUT CONTROL FOR STRESS PERIOD   30   TIME STEP   22
 
 SOLVING FOR HEAD 
                                                   Max.-Head-Change                         Max.-Flux-Residual
  Residual-Control   Outer-Iter.   Inner-Iter.     Column Row Layer    Maximum-Head-Change  Column Row Layer    Maximum-Flux-Residual          L2-NORM 
          0                 1           2             4    7     1       0.7026425549E-02       4    7    1         0.3671520035E+00      0.1201177805E+01
          0                 2           2             4    7     1      -0.2383883501E-01       4    7    1        -0.1280231097E+01      0.3128142351E+01
          0                 3           2             4    7     1       0.2414895836E-01       4    7    1         0.1333131487E+01      0.3260775885E+01
          0                 4           2             4    7     1      -0.9606211495E-03       4    7    1        -0.5452574615E-01      0.1240670823E+00
          0                 5           1             5    8     1      -0.2799997261E-04       5    8    1        -0.1699970654E-02      0.2407224847E-02

    ------------------------------------------------
       NWT REQUIRED            5 OUTER ITERATIONS 
       AND A TOTAL OF          9 INNER ITERATIONS.
    ------------------------------------------------

 NO OUTPUT CONTROL FOR STRESS PERIOD   30   TIME STEP   23
 
 SOLVING FOR HEAD 
                                                   Max.-Head-Change                         Max.-Flux-Residual
  Residual-Control   Outer-Iter.   Inner-Iter.     Column Row Layer    Maximum-Head-Change  Column Row Layer    Maximum-Flux-Residual          L2-NORM 
          0                 1           2             4    7     1       0.6987224930E-02       4    7    1         0.3650931888E+00      0.1202323798E+01
          0                 2           2             4    7     1      -0.6793845904E-03       4    7    1        -0.3650940309E-01      0.1176329799E+00
          0                 3           1             4    7     1       0.4627248707E-04       4    7    1         0.2555658846E-02      0.8169399277E-02

    ------------------------------------------------
       NWT REQUIRED            3 OUTER ITERATIONS 
       AND A TOTAL OF          5 INNER ITERATIONS.
    ------------------------------------------------

 NO OUTPUT CONTROL FOR STRESS PERIOD   30   TIME STEP   24
 
 SOLVING FOR HEAD 
                                                   Max.-Head-Change                         Max.-Flux-Residual
  Residual-Control   Outer-Iter.   Inner-Iter.     Column Row Layer    Maximum-Head-Change  Column Row Layer    Maximum-Flux-Residual          L2-NORM 
          0                 1           2             4    7     1       0.6948628080E-02       4    7    1         0.3630669062E+00      0.1187644852E+01
          0                 2           2             4    7     1      -0.2383147197E-01       4    7    1        -0.1279833911E+01      0.3127347948E+01
          0                 3           2             4    7     1       0.2414865595E-01       4    7    1         0.1333115010E+01      0.3260884097E+01
          0                 4           2             4    7     1      -0.9606113199E-03       4    7    1        -0.5452507218E-01      0.1240996908E+00
          0                 5           1             5    8     1      -0.2855701909E-04       5    8    1        -0.1733362474E-02      0.2431197320E-02

    ------------------------------------------------
       NWT REQUIRED            5 OUTER ITERATIONS 
       AND A TOTAL OF          9 INNER ITERATIONS.
    ------------------------------------------------

 NO OUTPUT CONTROL FOR STRESS PERIOD   30   TIME STEP   25
 
 SOLVING FOR HEAD 
                                                   Max.-Head-Change                         Max.-Flux-Residual
  Residual-Control   Outer-Iter.   Inner-Iter.     Column Row Layer    Maximum-Head-Change  Column Row Layer    Maximum-Flux-Residual          L2-NORM 
          0                 1           2             4    7     1       0.6910254274E-02       4    7    1         0.3610520003E+00      0.1189110974E+01
          0                 2           2             4    7     1      -0.6719000005E-03       4    7    1        -0.3610528293E-01      0.1163516464E+00
          0                 3           1             4    7     1       0.4576273296E-04       4    7    1         0.2527370439E-02      0.8082165151E-02

    ------------------------------------------------
       NWT REQUIRED            3 OUTER ITERATIONS 
       AND A TOTAL OF          5 INNER ITERATIONS.
    ------------------------------------------------

 NO OUTPUT CONTROL FOR STRESS PERIOD   30   TIME STEP   26
 
 SOLVING FOR HEAD 
                                                   Max.-Head-Change                         Max.-Flux-Residual
  Residual-Control   Outer-Iter.   Inner-Iter.     Column Row Layer    Maximum-Head-Change  Column Row Layer    Maximum-Flux-Residual          L2-NORM 
          0                 1           2             4    7     1       0.6872330908E-02       4    7    1         0.3590612715E+00      0.1175120119E+01
          0                 2           2             4    7     1      -0.2382425498E-01       4    7    1        -0.1279444671E+01      0.3126591250E+01
          0                 3           2             4    7     1       0.2414836359E-01       4    7    1         0.1333099088E+01      0.3260993117E+01
          0                 4           2             4    7     1      -0.9606018827E-03       4    7    1        -0.5452442096E-01      0.1241326814E+00
          0                 5           1             5    8     1      -0.2911207316E-04       5    8    1        -0.1766634929E-02      0.2454918457E-02

    ------------------------------------------------
       NWT REQUIRED            5 OUTER ITERATIONS 
       AND A TOTAL OF          9 INNER ITERATIONS.
    ------------------------------------------------

 NO OUTPUT CONTROL FOR STRESS PERIOD   30   TIME STEP   27
 
 SOLVING FOR HEAD 
                                                   Max.-Head-Change                         Max.-Flux-Residual
  Residual-Control   Outer-Iter.   Inner-Iter.     Column Row Layer    Maximum-Head-Change  Column Row Layer    Maximum-Flux-Residual          L2-NORM 
          0                 1           2             4    7     1       0.6834755885E-02       4    7    1         0.3570886009E+00      0.1176864299E+01
          0                 2           2             4    7     1      -0.6645586026E-03       4    7    1        -0.3570894171E-01      0.1151645267E+00
          0                 3           1             4    7     1       0.4526273061E-04       4    7    1         0.2499626543E-02      0.8001358971E-02

    ------------------------------------------------
       NWT REQUIRED            3 OUTER ITERATIONS 
       AND A TOTAL OF          5 INNER ITERATIONS.
    ------------------------------------------------

 NO OUTPUT CONTROL FOR STRESS PERIOD   30   TIME STEP   28
 
 SOLVING FOR HEAD 
                                                   Max.-Head-Change                         Max.-Flux-Residual
  Residual-Control   Outer-Iter.   Inner-Iter.     Column Row Layer    Maximum-Head-Change  Column Row Layer    Maximum-Flux-Residual          L2-NORM 
          0                 1           2             4    7     1       0.6797615455E-02       4    7    1         0.3551393012E+00      0.1163454258E+01
          0                 2           2             4    7     1      -0.2381718751E-01       4    7    1        -0.1279063560E+01      0.3125867962E+01
          0                 3           2             4    7     1       0.2414807721E-01       4    7    1         0.1333083497E+01      0.3261102141E+01
          0                 4           2             4    7     1      -0.9605926650E-03       4    7    1        -0.5452378327E-01      0.1241664967E+00
          0                 5           1             5    8     1      -0.2966248926E-04       5    8    1        -0.1799629473E-02      0.2478732670E-02

    ------------------------------------------------
       NWT REQUIRED            5 OUTER ITERATIONS 
       AND A TOTAL OF          9 INNER ITERATIONS.
    ------------------------------------------------

 NO OUTPUT CONTROL FOR STRESS PERIOD   30   TIME STEP   29
 
 SOLVING FOR HEAD 
                                                   Max.-Head-Change                         Max.-Flux-Residual
  Residual-Control   Outer-Iter.   Inner-Iter.     Column Row Layer    Maximum-Head-Change  Column Row Layer    Maximum-Flux-Residual          L2-NORM 
          0                 1           2             4    7     1       0.6760805279E-02       4    7    1         0.3532072130E+00      0.1165434512E+01
          0                 2           2             4    7     1      -0.6573677491E-03       4    7    1        -0.3532080171E-01      0.1140569352E+00
          0                 3           1             4    7     1       0.4477298060E-04       4    7    1         0.2472456757E-02      0.7925683712E-02

    ------------------------------------------------
       NWT REQUIRED            3 OUTER ITERATIONS 
       AND A TOTAL OF          5 INNER ITERATIONS.
    ------------------------------------------------

 NO OUTPUT CONTROL FOR STRESS PERIOD   30   TIME STEP   30



 STREAM LISTING     PERIOD     30   STEP       30

 LAYER ROW COL. STREAM  RCH.  FLOW INTO     FLOW TO   FLOW OUT OF   OVRLND.     DIRECT     STREAM       STREAM     STREAM     STREAM   STREAMBED  STREAMBED
                SEG.NO.  NO.  STRM. RCH.    AQUIFER    STRM. RCH.    RUNOFF     PRECIP       ET          HEAD       DEPTH      WIDTH   CONDCTNC.   GRADIENT

   1    1    1     1     1    3.7124E+01  2.9395E-01   3.6830E+01  0.000E+00  0.000E+00  0.000E+00  1.09436E+03  1.309E+00  1.516E+01  6.821E-02  1.436E+00
   1    2    2     1     2    3.6830E+01  4.5517E-01   3.6375E+01  0.000E+00  0.000E+00  0.000E+00  1.08936E+03  1.306E+00  1.510E+01  1.057E-01  1.435E+00
   1    3    3     1     3    3.6375E+01  3.8813E-01   3.5987E+01  0.000E+00  0.000E+00  0.000E+00  1.08372E+03  1.303E+00  1.503E+01  9.020E-02  1.434E+00
   1    3    4     1     4    3.5987E+01  3.5736E-01   3.5629E+01  0.000E+00  0.000E+00  0.000E+00  1.07871E+03  1.300E+00  1.497E+01  8.311E-02  1.433E+00
   1    4    5     2     1    3.3629E+01  3.4618E-01   3.3283E+01  0.000E+00  0.000E+00  0.000E+00  1.07337E+03  1.438E+00  1.200E+01  7.800E-02  1.479E+00
   1    5    6     2     2    3.3283E+01  2.6582E-01   3.3017E+01  0.000E+00  0.000E+00  0.000E+00  1.06794E+03  1.430E+00  1.200E+01  6.000E-02  1.477E+00
   1    6    6     2     3    3.3017E+01  2.6541E-01   3.2752E+01  0.000E+00  0.000E+00  0.000E+00  1.06322E+03  1.423E+00  1.200E+01  6.000E-02  1.474E+00
   1    7    6     2     4    3.2752E+01  2.6499E-01   3.2487E+01  0.000E+00  0.000E+00  0.000E+00  1.05849E+03  1.417E+00  1.200E+01  6.000E-02  1.472E+00
   1    8    6     2     5    3.2487E+01  2.6458E-01   3.2222E+01  0.000E+00  0.000E+00  0.000E+00  1.05377E+03  1.410E+00  1.200E+01  6.000E-02  1.470E+00
   1    3    5     3     1    2.0000E+00  2.8252E-01   1.7175E+00  0.000E+00  0.000E+00  0.000E+00  1.07555E+03  1.909E+00  9.636E+00  7.227E-02  1.955E+00
   1    3    6     3     2    1.7175E+00  2.4905E-01   1.4684E+00  0.000E+00  0.000E+00  0.000E+00  1.07264E+03  1.727E+00  8.909E+00  6.682E-02  1.864E+00
   1    3    7     3     3    1.4684E+00  1.9718E-01   1.2712E+00  0.000E+00  0.000E+00  0.000E+00  1.06987E+03  1.555E+00  8.218E+00  5.547E-02  1.777E+00
   1    4    8     3     4    1.2712E+00  2.2567E-01   1.0456E+00  0.000E+00  0.000E+00  0.000E+00  1.06682E+03  1.364E+00  7.455E+00  6.709E-02  1.682E+00
   1    5    8     3     5    1.0456E+00  1.5790E-01   8.8768E-01  0.000E+00  0.000E+00  0.000E+00  1.06362E+03  1.164E+00  6.655E+00  4.991E-02  1.582E+00
   1    6    8     3     6    8.8768E-01  5.5980E-02   8.3170E-01  0.000E+00  0.000E+00  0.000E+00  1.06158E+03  1.036E+00  6.145E+00  1.844E-02  1.518E+00
   1    5   10     4     1    1.0000E+01  9.0919E-02   9.9091E+00  0.000E+00  0.000E+00  0.000E+00  1.07836E+03  6.368E-01  1.000E+01  2.500E-02  1.212E+00
   1    5    9     4     2    9.9091E+00  1.8158E-01   9.7275E+00  0.000E+00  0.000E+00  0.000E+00  1.07154E+03  6.315E-01  1.000E+01  5.000E-02  1.211E+00
   1    6    8     4     3    9.7275E+00  1.2689E-01   9.6006E+00  0.000E+00  0.000E+00  0.000E+00  1.06381E+03  6.256E-01  1.000E+01  3.500E-02  1.209E+00
   1    6    8     5     1    1.0432E+01  2.2686E-01   1.0205E+01  0.000E+00  0.000E+00  0.000E+00  1.05868E+03  6.790E-01  1.542E+01  6.166E-02  1.226E+00
   1    7    7     5     2    1.0205E+01  2.7894E-01   9.9265E+00  0.000E+00  0.000E+00  0.000E+00  1.05417E+03  6.732E-01  1.519E+01  7.594E-02  1.224E+00
   1    8    7     5     3    9.9265E+00  1.9221E-01   9.7343E+00  0.000E+00  0.000E+00  0.000E+00  1.04992E+03  6.676E-01  1.497E+01  5.241E-02  1.223E+00
   1    8    6     5     4    9.7343E+00  1.3577E-01   9.5985E+00  0.000E+00  0.000E+00  0.000E+00  1.04691E+03  6.637E-01  1.482E+01  3.706E-02  1.221E+00
   1    9    6     6     1    4.1821E+01  2.7956E-01   4.1541E+01  0.000E+00  0.000E+00  0.000E+00  1.04439E+03  1.659E+00  1.200E+01  6.000E-02  1.553E+00
   1   10    7     6     2    4.1541E+01  2.7916E-01   4.1262E+01  0.000E+00  0.000E+00  0.000E+00  1.03983E+03  1.653E+00  1.200E+01  6.000E-02  1.551E+00
   1   11    7     6     3    4.1262E+01  2.7876E-01   4.0983E+01  0.000E+00  0.000E+00  0.000E+00  1.03528E+03  1.646E+00  1.200E+01  6.000E-02  1.549E+00
   1   12    7     6     4    4.0983E+01  2.7836E-01   4.0705E+01  0.000E+00  0.000E+00  0.000E+00  1.03073E+03  1.639E+00  1.200E+01  6.000E-02  1.546E+00
   1   13    7     6     5    4.0705E+01  2.2803E-02   4.0682E+01  0.000E+00  0.000E+00  0.000E+00  1.02754E+03  1.636E+00  1.200E+01  2.400E-02  3.167E-01
   1   14    9     7     1    1.5000E+02  1.3840E+00   1.4862E+02  0.000E+00  0.000E+00  0.000E+00  1.03987E+03  2.288E+00  5.529E+01  5.593E-01  8.248E-01
   1   13    8     7     2    1.4862E+02  1.9884E+00   1.4663E+02  0.000E+00  0.000E+00  0.000E+00  1.03478E+03  2.279E+00  5.525E+01  6.147E-01  1.078E+00
   1   13    7     7     3    1.4663E+02  1.7273E+00   1.4490E+02  0.000E+00  0.000E+00  0.000E+00  1.02969E+03  2.269E+00  5.521E+01  5.584E-01  1.031E+00
   1   13    6     8     1    1.8558E+02  1.2450E+00   1.8434E+02  0.000E+00  0.000E+00  0.000E+00  1.02492E+03  3.047E+00  4.418E+01  4.502E-01  9.217E-01
   1   13    5     8     2    1.8434E+02  4.4801E-01   1.8389E+02  0.000E+00  0.000E+00  0.000E+00  1.01867E+03  3.042E+00  4.411E+01  4.495E-01  3.323E-01
   1   13    4     8     3    1.8389E+02 -1.4778E+00   1.8537E+02  0.000E+00  0.000E+00  0.000E+00  1.01242E+03  3.045E+00  4.415E+01  4.499E+00 -1.095E-01
   1   13    3     8     4    1.8537E+02 -3.1041E+00   1.8847E+02  0.000E+00  0.000E+00  0.000E+00  1.00618E+03  3.059E+00  4.436E+01  4.520E+00 -2.289E-01
   1   13    2     8     5    1.8847E+02 -2.2871E+00   1.9076E+02  0.000E+00  0.000E+00  0.000E+00  9.99951E+02  3.076E+00  4.460E+01  4.545E+00 -1.678E-01
   1   13    1     8     6    1.9076E+02 -1.8270E+00   1.9259E+02  0.000E+00  0.000E+00  0.000E+00  9.94963E+02  3.088E+00  4.478E+01  2.738E+00 -2.224E-01
   1    8    6     9     1    6.6396E-07  0.0000E+00   6.6396E-07  0.000E+00  0.000E+00  0.000E+00  1.07875E+03  8.769E-05  4.000E+00  0.000E+00  1.000E+00
   1    8    5     9     2    6.6396E-07  0.0000E+00   6.6396E-07  0.000E+00  0.000E+00  0.000E+00  1.07825E+03  8.769E-05  4.000E+00  0.000E+00  1.000E+00





UNSATURATED ZONE PACKAGE VOLUMETRIC BUDGET FOR  TIME STEP    30 STRESS PERIOD   30
  ------------------------------------------------------------------------------



     CUMULATIVE VOLUMES      L**3       RATES FOR THIS TIME STEP      L**3/T
     ------------------                 ------------------------

           IN:                                      IN:
           ---                                      ---
        INFILTRATION =  1067455613.5159          INFILTRATION =           0.8475

          OUT:                                     OUT:
          ----                                     ----
              UZF ET =   892580549.8507                UZF ET =           8.3175
        UZF RECHARGE =     1125167.5498          UZF RECHARGE =           0.0360

            IN - OUT =   173749896.1154              IN - OUT =          -7.5060

          STORAGE:                                 STORAGE:
          --------                                 --------
      STORAGE CHANGE =   173750612.5315        STORAGE CHANGE =          -7.5058

 PERCENT DISCREPANCY IS DIFFERENCE BETWEEN IN-OUT MINUS CHANGE IN STORAGE
 DIVIDED BY THE AVERAGE OF IN AND OUT TIMES 100

 PERCENT DISCREPANCY =          -0.00     PERCENT DISCREPANCY =          -0.00






1
  VOLUMETRIC BUDGET FOR AGRICULTURAL FIELDS AT  END OF TIME STEP   30, STRESS PERIOD  30
  ------------------------------------------------------------------------------

     CUMULATIVE VOLUMES      L**3       RATES FOR THIS TIME STEP      L**3/T
     ------------------                 ------------------------

           IN:                                      IN:
           ---                                      ---
               AG WELLS  =   665535360.0000                 AG WELLS  =       2.2132E-07
      DIVERSION SEGMENTS =   337206816.0000        DIVERSION SEGMENTS =       6.6396E-07
           GW IRRIGATION =           0.0000             GW IRRIGATION =           0.0000
           SW IRRIGATION =           0.0000             SW IRRIGATION =           0.0000
        SYSTEM LOSSES GW =           0.0000          SYSTEM LOSSES GW =           0.0000
        SYSTEM LOSSES SW =           0.0000          SYSTEM LOSSES SW =           0.0000

                TOTAL IN =  1002742144.0000                  TOTAL IN =       8.8528E-07

          OUT:                                     OUT:
          ----                                     ----
               AG WELLS  =           0.0000                 AG WELLS  =           0.0000
      DIVERSION SEGMENTS =           0.0000        DIVERSION SEGMENTS =           0.0000
           GW IRRIGATION =   665535360.0000             GW IRRIGATION =       2.2132E-07
           SW IRRIGATION =   337213344.0000             SW IRRIGATION =       6.6397E-07
        SYSTEM LOSSES GW =           0.0000          SYSTEM LOSSES GW =           0.0000
        SYSTEM LOSSES SW =           0.0000          SYSTEM LOSSES SW =           0.0000

               TOTAL OUT =  1002748672.0000                 TOTAL OUT =       8.8529E-07

                IN - OUT =       -6528.0000                  IN - OUT =      -1.3188E-11

     PERCENT DISCREPANCY =          -0.00         PERCENT DISCREPANCY =          -0.00



1
  VOLUMETRIC BUDGET FOR ENTIRE MODEL AT END OF TIME STEP   30, STRESS PERIOD  30
  ------------------------------------------------------------------------------

     CUMULATIVE VOLUMES      L**3       RATES FOR THIS TIME STEP      L**3/T
     ------------------                 ------------------------

           IN:                                      IN:
           ---                                      ---
             STORAGE     =  1023014912.0000               STORAGE     =           1.9319
       CONSTANT HEAD     =           0.0000         CONSTANT HEAD     =           0.0000
     HEAD DEP BOUNDS     =    22008492.0000       HEAD DEP BOUNDS     =           0.2890
      STREAM LEAKAGE     =   903856256.0000        STREAM LEAKAGE     =          13.2344
        UZF RECHARGE     =     1125167.3750          UZF RECHARGE     =       3.5994E-02
               GW ET     =           0.0000                 GW ET     =           0.0000
     SURFACE LEAKAGE     =           0.0000       SURFACE LEAKAGE     =           0.0000
           AG WELLS      =           0.0000             AG WELLS      =           0.0000

                TOTAL IN =  1950004736.0000                  TOTAL IN =          15.4913

          OUT:                                     OUT:
          ----                                     ----
             STORAGE     =   496884832.0000               STORAGE     =           6.5066
       CONSTANT HEAD     =           0.0000         CONSTANT HEAD     =           0.0000
     HEAD DEP BOUNDS     =    21994742.0000       HEAD DEP BOUNDS     =           0.2900
      STREAM LEAKAGE     =   765604864.0000        STREAM LEAKAGE     =           8.6960
        UZF RECHARGE     =           0.0000          UZF RECHARGE     =           0.0000
               GW ET     =           0.0000                 GW ET     =           0.0000
     SURFACE LEAKAGE     =           0.0000       SURFACE LEAKAGE     =           0.0000
           AG WELLS      =   665535360.0000             AG WELLS      =       2.2132E-07

               TOTAL OUT =  1950019840.0000                 TOTAL OUT =          15.4925

                IN - OUT =      -15104.0000                  IN - OUT =      -1.2093E-03

     PERCENT DISCREPANCY =          -0.00         PERCENT DISCREPANCY =          -0.01






         TIME SUMMARY AT END OF TIME STEP   30 IN STRESS PERIOD   30
                    SECONDS     MINUTES      HOURS       DAYS        YEARS
                    -----------------------------------------------------------
   TIME STEP LENGTH  87667.      1461.1      24.352      1.0147     2.77799E-03
 STRESS PERIOD TIME 2.63000E+06  43833.      730.56      30.440     8.33397E-02
         TOTAL TIME 7.63565E+07 1.27261E+06  21210.      883.76      2.4196    
1
1
                            STRESS PERIOD NO.   31, LENGTH =   2630000.    
                            -----------------------------------------------

                              NUMBER OF TIME STEPS =    30

                               MULTIPLIER FOR DELT =     1.000

                            INITIAL TIME STEP SIZE =   87666.66    

 REUSING NON-PARAMETER GHB CELLS FROM LAST STRESS PERIOD

      2 GHB CELLS

 REUSING STREAM SEGMENT DATA FROM LAST STRESS PERIOD



            AREAL INFILTRATION RATE
 READING ON UNIT   19 WITH FORMAT: (FREE)              

            1           2           3           4           5           6           7           8           9          10
 ........................................................................................................................
   1   1.0000E-10  2.0000E-10   0.000       0.000       0.000       0.000       0.000       0.000       0.000       0.000    
   2   2.0000E-10  1.0000E-10  2.0000E-10   0.000       0.000      8.0000E-10  8.0000E-10  5.0000E-10   0.000       0.000    
   3    0.000      5.0000E-10  1.0000E-10  1.0000E-10  8.0000E-10  8.0000E-10  5.0000E-10  5.0000E-10   0.000       0.000    
   4   8.0000E-10  5.0000E-10  1.0000E-10  1.0000E-10  1.0000E-10  1.0000E-10  1.0000E-10  1.0000E-10  2.0000E-10   0.000    
   5   8.0000E-10  5.0000E-10  1.0000E-10  1.0000E-10  1.0000E-10  1.0000E-10  1.0000E-10  1.0000E-10  1.0000E-10  1.0000E-10
   6   8.0000E-10  5.0000E-10  5.0000E-10  2.0000E-10  2.0000E-10  1.0000E-10  1.0000E-10  1.0000E-10  1.0000E-10  5.0000E-10
   7   8.0000E-10  5.0000E-10  5.0000E-10  2.0000E-10  2.0000E-10  1.0000E-10  1.0000E-10  2.0000E-10  2.0000E-10   0.000    
   8    0.000      5.0000E-10  5.0000E-10  2.0000E-10  2.0000E-10  1.0000E-10  1.0000E-10  2.0000E-10  5.0000E-10   0.000    
   9    0.000      5.0000E-10  5.0000E-10  2.0000E-10  2.0000E-10  1.0000E-10  1.0000E-10  2.0000E-10  5.0000E-10   0.000    
  10    0.000      5.0000E-10  5.0000E-10  2.0000E-10  2.0000E-10  1.0000E-10  1.0000E-10  2.0000E-10  5.0000E-10  8.0000E-10
  11    0.000      1.0000E-10  1.0000E-10  1.0000E-10  1.0000E-10  1.0000E-10  1.0000E-10  2.0000E-10  5.0000E-10   0.000    
  12   1.0000E-10  1.0000E-10  1.0000E-10  1.0000E-10  1.0000E-10  1.0000E-10  1.0000E-10  1.0000E-10  2.0000E-10   0.000    
  13   1.0000E-10  1.0000E-10  2.0000E-10  2.0000E-10  2.0000E-10  2.0000E-10  2.0000E-10  1.0000E-10  1.0000E-10   0.000    
  14    0.000      2.0000E-10  5.0000E-10  5.0000E-10  5.0000E-10  5.0000E-10  5.0000E-10  2.0000E-10  1.0000E-10   0.000    
  15    0.000       0.000      8.0000E-10  8.0000E-10  8.0000E-10  8.0000E-10   0.000       0.000       0.000       0.000    

                  ET RATE =  1.500000E-07

 USING ET EXTINCTION DEPTH FROM PREVIOUS STRESS PERIOD. CURRENT PERIOD IS:      31

 USING EXTINCTION WATER CONTENT FROM PREVIOUS STRESS PERIOD. CURRENT PERIOD IS:      31

 USING AIR ENTRY PRESSURE FROM PREVIOUS STRESS PERIOD. CURRENT PERIOD IS:      31

 USING ROOT PRESSURE HEAD FROM PREVIOUS STRESS PERIOD. CURRENT PERIOD IS:      31

 USING ROOT ACTIVITY FROM PREVIOUS STRESS PERIOD. CURRENT PERIOD IS:      31

 PROCESSING AG STRESS PERIOD DATA

 READING AG STRESS PERIOD DATA

 READING IRRIGATION SEGMENT

 READING IRRIGATION WELL

 READING SUPPLEMENTAL WELL

 END PROCESSING AG STRESS PERIOD DATA OPTIONS
 
 SOLVING FOR HEAD 
                                                   Max.-Head-Change                         Max.-Flux-Residual
  Residual-Control   Outer-Iter.   Inner-Iter.     Column Row Layer    Maximum-Head-Change  Column Row Layer    Maximum-Flux-Residual          L2-NORM 
          0                 1           2             4    7     1       0.6724391641E-02       4    7    1         0.3512975818E+00      0.1113421644E+01
          0                 2           2             4    7     1      -0.7036296004E-01       4    7    1        -0.3778690592E+01      0.9275345686E+01
          0                 3           2             4    7     1       0.2537411912E-01       4    7    1         0.1400763704E+01      0.3421392061E+01
          0                 4           2             4    7     1      -0.1009670638E-02       4    7    1        -0.5729196919E-01      0.1405850059E+00
          0                 5           1             7   13     1       0.1292758078E-04       4    7    1         0.7260648201E-03      0.1991314159E-02

    ------------------------------------------------
       NWT REQUIRED            5 OUTER ITERATIONS 
       AND A TOTAL OF          9 INNER ITERATIONS.
    ------------------------------------------------

 NO OUTPUT CONTROL FOR STRESS PERIOD   31   TIME STEP    1
 
 SOLVING FOR HEAD 
                                                   Max.-Head-Change                         Max.-Flux-Residual
  Residual-Control   Outer-Iter.   Inner-Iter.     Column Row Layer    Maximum-Head-Change  Column Row Layer    Maximum-Flux-Residual          L2-NORM 
          0                 1           2             4    7     1       0.6976932484E-02       4    7    1         0.3633400406E+00      0.1138925887E+01
          0                 2           2             7   13     1      -0.3412146524E-02       7   13    1        -0.1893935924E+00      0.2199046132E+00
          0                 3           2             7   13     1       0.2322884113E-03       7   13    1         0.1325384461E-01      0.1538528715E-01
          0                 4           1             7   13     1      -0.9238926839E-05       7   13    1        -0.5418543710E-03      0.6288133421E-03

    ------------------------------------------------
       NWT REQUIRED            4 OUTER ITERATIONS 
       AND A TOTAL OF          7 INNER ITERATIONS.
    ------------------------------------------------

 NO OUTPUT CONTROL FOR STRESS PERIOD   31   TIME STEP    2
 
 SOLVING FOR HEAD 
                                                   Max.-Head-Change                         Max.-Flux-Residual
  Residual-Control   Outer-Iter.   Inner-Iter.     Column Row Layer    Maximum-Head-Change  Column Row Layer    Maximum-Flux-Residual          L2-NORM 
          0                 1           2             4    7     1       0.6959231575E-02       4    7    1         0.3625111901E+00      0.1120864045E+01
          0                 2           2             4    7     1      -0.7041295551E-01       4    7    1        -0.3781251273E+01      0.9302725533E+01
          0                 3           2             4    7     1       0.1662097260E-01       4    7    1         0.9175416665E+00      0.2248569410E+01
          0                 4           2             4    7     1      -0.6613685902E-03       4    7    1        -0.3752778666E-01      0.9240925483E-01
          0                 5           1             7   13     1       0.1310645501E-04       7   13    1         0.7308630315E-03      0.1398908083E-02

    ------------------------------------------------
       NWT REQUIRED            5 OUTER ITERATIONS 
       AND A TOTAL OF          9 INNER ITERATIONS.
    ------------------------------------------------

 NO OUTPUT CONTROL FOR STRESS PERIOD   31   TIME STEP    3
 
 SOLVING FOR HEAD 
                                                   Max.-Head-Change                         Max.-Flux-Residual
  Residual-Control   Outer-Iter.   Inner-Iter.     Column Row Layer    Maximum-Head-Change  Column Row Layer    Maximum-Flux-Residual          L2-NORM 
          0                 1           2             5    6     1       0.7959347934E-02       5    6    1         0.4230245696E+00      0.1205304524E+01
          0                 2           2             7   13     1      -0.3415446775E-02       7   13    1        -0.1895729933E+00      0.2233727227E+00
          0                 3           2             7   13     1       0.2325122184E-03       7   13    1         0.1326635069E-01      0.1562468235E-01
          0                 4           1             7   13     1      -0.9247405987E-05       7   13    1        -0.5423378329E-03      0.6383749402E-03

    ------------------------------------------------
       NWT REQUIRED            4 OUTER ITERATIONS 
       AND A TOTAL OF          7 INNER ITERATIONS.
    ------------------------------------------------

 NO OUTPUT CONTROL FOR STRESS PERIOD   31   TIME STEP    4
 
 SOLVING FOR HEAD 
                                                   Max.-Head-Change                         Max.-Flux-Residual
  Residual-Control   Outer-Iter.   Inner-Iter.     Column Row Layer    Maximum-Head-Change  Column Row Layer    Maximum-Flux-Residual          L2-NORM 
          0                 1           2             5    6     1       0.7789631374E-02       5    6    1         0.4136642788E+00      0.1183347573E+01
          0                 2           2             4    7     1      -0.7044515957E-01       5    6    1        -0.3786366631E+01      0.9315489664E+01
          0                 3           2             4    7     1       0.1662343793E-01       5    6    1         0.9179032871E+00      0.2249912087E+01
          0                 4           2             4    7     1      -0.6614666750E-03       5    6    1        -0.3754237539E-01      0.9244893074E-01
          0                 5           1             7   13     1       0.1278006320E-04       7   13    1         0.7126776304E-03      0.1390037863E-02

    ------------------------------------------------
       NWT REQUIRED            5 OUTER ITERATIONS 
       AND A TOTAL OF          9 INNER ITERATIONS.
    ------------------------------------------------

 NO OUTPUT CONTROL FOR STRESS PERIOD   31   TIME STEP    5
 
 SOLVING FOR HEAD 
                                                   Max.-Head-Change                         Max.-Flux-Residual
  Residual-Control   Outer-Iter.   Inner-Iter.     Column Row Layer    Maximum-Head-Change  Column Row Layer    Maximum-Flux-Residual          L2-NORM 
          0                 1           2             5    6     1       0.9205628487E-02       5    6    1         0.4914122182E+00      0.1286174842E+01
          0                 2           2             7   13     1      -0.3418883710E-02       7   13    1        -0.1897602976E+00      0.2278267583E+00
          0                 3           2             7   13     1       0.2327466451E-03       7   13    1         0.1327948731E-01      0.1593242143E-01
          0                 4           1             7   13     1      -0.9258060586E-05       7   13    1        -0.5429535481E-03      0.6506970065E-03

    ------------------------------------------------
       NWT REQUIRED            4 OUTER ITERATIONS 
       AND A TOTAL OF          7 INNER ITERATIONS.
    ------------------------------------------------

 NO OUTPUT CONTROL FOR STRESS PERIOD   31   TIME STEP    6
 
 SOLVING FOR HEAD 
                                                   Max.-Head-Change                         Max.-Flux-Residual
  Residual-Control   Outer-Iter.   Inner-Iter.     Column Row Layer    Maximum-Head-Change  Column Row Layer    Maximum-Flux-Residual          L2-NORM 
          0                 1           2             5    6     1       0.8970794082E-02       5    6    1         0.4784308463E+00      0.1259271022E+01
          0                 2           2             4    7     1      -0.7047998724E-01       5    6    1        -0.3792843309E+01      0.9327290078E+01
          0                 3           2             4    7     1       0.1662582681E-01       5    6    1         0.9183566548E+00      0.2250701932E+01
          0                 4           2             4    7     1      -0.6615617284E-03       5    6    1        -0.3756091816E-01      0.9246646188E-01
          0                 5           1             7   13     1       0.1245204232E-04       7   13    1         0.6944038701E-03      0.1380963452E-02

    ------------------------------------------------
       NWT REQUIRED            5 OUTER ITERATIONS 
       AND A TOTAL OF          9 INNER ITERATIONS.
    ------------------------------------------------

 NO OUTPUT CONTROL FOR STRESS PERIOD   31   TIME STEP    7
 
 SOLVING FOR HEAD 
                                                   Max.-Head-Change                         Max.-Flux-Residual
  Residual-Control   Outer-Iter.   Inner-Iter.     Column Row Layer    Maximum-Head-Change  Column Row Layer    Maximum-Flux-Residual          L2-NORM 
          0                 1           2             5    6     1       0.1032590385E-01       5    6    1         0.5527951113E+00      0.1373695734E+01
          0                 2           2             7   13     1      -0.3422426974E-02       7   13    1        -0.1899537761E+00      0.2328943401E+00
          0                 3           2             7   13     1       0.2329885995E-03       7   13    1         0.1329305439E-01      0.1628540916E-01
          0                 4           1             7   13     1      -0.9266644040E-05       7   13    1        -0.5434429845E-03      0.6650539262E-03

    ------------------------------------------------
       NWT REQUIRED            4 OUTER ITERATIONS 
       AND A TOTAL OF          7 INNER ITERATIONS.
    ------------------------------------------------

 NO OUTPUT CONTROL FOR STRESS PERIOD   31   TIME STEP    8
 
 SOLVING FOR HEAD 
                                                   Max.-Head-Change                         Max.-Flux-Residual
  Residual-Control   Outer-Iter.   Inner-Iter.     Column Row Layer    Maximum-Head-Change  Column Row Layer    Maximum-Flux-Residual          L2-NORM 
          0                 1           2             5    6     1       0.1003420791E-01       5    6    1         0.5366559044E+00      0.1341588448E+01
          0                 2           2             4    7     1      -0.7051734737E-01       5    6    1        -0.3798665829E+01      0.9338253557E+01
          0                 3           2             4    7     1       0.1662585492E-01       5    6    1         0.9187642323E+00      0.2251164719E+01
          0                 4           2             4    7     1      -0.6615600688E-03       5    6    1        -0.3757758810E-01      0.9247114890E-01
          0                 5           1             7   13     1       0.1213026061E-04       7   13    1         0.6764763591E-03      0.1372236545E-02

    ------------------------------------------------
       NWT REQUIRED            5 OUTER ITERATIONS 
       AND A TOTAL OF          9 INNER ITERATIONS.
    ------------------------------------------------

 NO OUTPUT CONTROL FOR STRESS PERIOD   31   TIME STEP    9
 
 SOLVING FOR HEAD 
                                                   Max.-Head-Change                         Max.-Flux-Residual
  Residual-Control   Outer-Iter.   Inner-Iter.     Column Row Layer    Maximum-Head-Change  Column Row Layer    Maximum-Flux-Residual          L2-NORM 
          0                 1           2             5    6     1       0.1133606077E-01       5    6    1         0.6080644475E+00      0.1462897116E+01
          0                 2           2             7   13     1      -0.3426069944E-02       7   13    1        -0.1901530059E+00      0.2383027764E+00
          0                 3           2             7   13     1       0.2332364823E-03       7   13    1         0.1330695795E-01      0.1666084426E-01
          0                 4           1             7   13     1      -0.9276482384E-05       7   13    1        -0.5440073064E-03      0.6803166644E-03

    ------------------------------------------------
       NWT REQUIRED            4 OUTER ITERATIONS 
       AND A TOTAL OF          7 INNER ITERATIONS.
    ------------------------------------------------

 NO OUTPUT CONTROL FOR STRESS PERIOD   31   TIME STEP   10
 
 SOLVING FOR HEAD 
                                                   Max.-Head-Change                         Max.-Flux-Residual
  Residual-Control   Outer-Iter.   Inner-Iter.     Column Row Layer    Maximum-Head-Change  Column Row Layer    Maximum-Flux-Residual          L2-NORM 
          0                 1           2             5    6     1       0.1099442100E-01       5    6    1         0.5891549584E+00      0.1425795448E+01
          0                 2           2             4    7     1      -0.7055947725E-01       5    6    1        -0.3803915744E+01      0.9348523564E+01
          0                 3           2             4    7     1       0.1660317239E-01       5    6    1         0.9191317279E+00      0.2251254368E+01
          0                 4           2             4    7     1      -0.6606574729E-03       5    6    1        -0.3759261868E-01      0.9246084153E-01
          0                 5           1             7   13     1       0.1180304697E-04       7   13    1         0.6582489286E-03      0.1363223017E-02

    ------------------------------------------------
       NWT REQUIRED            5 OUTER ITERATIONS 
       AND A TOTAL OF          9 INNER ITERATIONS.
    ------------------------------------------------

 NO OUTPUT CONTROL FOR STRESS PERIOD   31   TIME STEP   11
 
 SOLVING FOR HEAD 
                                                   Max.-Head-Change                         Max.-Flux-Residual
  Residual-Control   Outer-Iter.   Inner-Iter.     Column Row Layer    Maximum-Head-Change  Column Row Layer    Maximum-Flux-Residual          L2-NORM 
          0                 1           2             5    6     1       0.1224938578E-01       5    6    1         0.6579657477E+00      0.1550627647E+01
          0                 2           2             7   13     1      -0.3429754547E-02       7   13    1        -0.1903547460E+00      0.2438391954E+00
          0                 3           2             7   13     1       0.2334875006E-03       7   13    1         0.1332105143E-01      0.1704695265E-01
          0                 4           1             7   13     1      -0.9286128925E-05       7   13    1        -0.5445608549E-03      0.6958971916E-03

    ------------------------------------------------
       NWT REQUIRED            4 OUTER ITERATIONS 
       AND A TOTAL OF          7 INNER ITERATIONS.
    ------------------------------------------------

 NO OUTPUT CONTROL FOR STRESS PERIOD   31   TIME STEP   12
 
 SOLVING FOR HEAD 
                                                   Max.-Head-Change                         Max.-Flux-Residual
  Residual-Control   Outer-Iter.   Inner-Iter.     Column Row Layer    Maximum-Head-Change  Column Row Layer    Maximum-Flux-Residual          L2-NORM 
          0                 1           2             5    6     1       0.1186385206E-01       5    6    1         0.6366251221E+00      0.1508835351E+01
          0                 2           2             4    7     1      -0.7063359651E-01       5    6    1        -0.3808662766E+01      0.9357922128E+01
          0                 3           2             4    7     1       0.1664281388E-01       5    6    1         0.9194640216E+00      0.2252769197E+01
          0                 4           2             4    7     1      -0.6622348907E-03       5    6    1        -0.3760620944E-01      0.9250939866E-01
          0                 5           1             7   13     1       0.1148414289E-04       7   13    1         0.6404794235E-03      0.1354664209E-02

    ------------------------------------------------
       NWT REQUIRED            5 OUTER ITERATIONS 
       AND A TOTAL OF          9 INNER ITERATIONS.
    ------------------------------------------------

 NO OUTPUT CONTROL FOR STRESS PERIOD   31   TIME STEP   13
 
 SOLVING FOR HEAD 
                                                   Max.-Head-Change                         Max.-Flux-Residual
  Residual-Control   Outer-Iter.   Inner-Iter.     Column Row Layer    Maximum-Head-Change  Column Row Layer    Maximum-Flux-Residual          L2-NORM 
          0                 1           2             5    6     1       0.1307756742E-01       5    6    1         0.7031524755E+00      0.1635604143E+01
          0                 2           2             7   13     1      -0.3433102863E-02       7   13    1        -0.1905379875E+00      0.2493812236E+00
          0                 3           2             7   13     1       0.2337154842E-03       7   13    1         0.1333384991E-01      0.1743314235E-01
          0                 4           1             7   13     1      -0.9296103811E-05       7   13    1        -0.5451365387E-03      0.7117639468E-03

    ------------------------------------------------
       NWT REQUIRED            4 OUTER ITERATIONS 
       AND A TOTAL OF          7 INNER ITERATIONS.
    ------------------------------------------------

 NO OUTPUT CONTROL FOR STRESS PERIOD   31   TIME STEP   14
 
 SOLVING FOR HEAD 
                                                   Max.-Head-Change                         Max.-Flux-Residual
  Residual-Control   Outer-Iter.   Inner-Iter.     Column Row Layer    Maximum-Head-Change  Column Row Layer    Maximum-Flux-Residual          L2-NORM 
          0                 1           2             5    6     1       0.1265320961E-01       5    6    1         0.6796642276E+00      0.1589536058E+01
          0                 2           2             4    7     1      -0.7067359177E-01       5    6    1        -0.3812966678E+01      0.9366762294E+01
          0                 3           2             4    7     1       0.1664554511E-01       5    6    1         0.9197652977E+00      0.2253350592E+01
          0                 4           2             4    7     1      -0.6623435667E-03       5    6    1        -0.3761853161E-01      0.9251776073E-01
          0                 5           1             7   13     1       0.1115903127E-04       7   13    1         0.6223681573E-03      0.1347551068E-02

    ------------------------------------------------
       NWT REQUIRED            5 OUTER ITERATIONS 
       AND A TOTAL OF          9 INNER ITERATIONS.
    ------------------------------------------------

 NO OUTPUT CONTROL FOR STRESS PERIOD   31   TIME STEP   15
 
 SOLVING FOR HEAD 
                                                   Max.-Head-Change                         Max.-Flux-Residual
  Residual-Control   Outer-Iter.   Inner-Iter.     Column Row Layer    Maximum-Head-Change  Column Row Layer    Maximum-Flux-Residual          L2-NORM 
          0                 1           2             5    6     1       0.1383052019E-01       5    6    1         0.7441791561E+00      0.1717011099E+01
          0                 2           2             7   13     1      -0.3437234873E-02       7   13    1        -0.1907648637E+00      0.2548888357E+00
          0                 3           2             7   13     1       0.2339952848E-03       7   13    1         0.1334960153E-01      0.1781698500E-01
          0                 4           1             7   13     1      -0.9306194975E-05       7   13    1        -0.5457141187E-03      0.7271965419E-03

    ------------------------------------------------
       NWT REQUIRED            4 OUTER ITERATIONS 
       AND A TOTAL OF          7 INNER ITERATIONS.
    ------------------------------------------------

 NO OUTPUT CONTROL FOR STRESS PERIOD   31   TIME STEP   16
 
 SOLVING FOR HEAD 
                                                   Max.-Head-Change                         Max.-Flux-Residual
  Residual-Control   Outer-Iter.   Inner-Iter.     Column Row Layer    Maximum-Head-Change  Column Row Layer    Maximum-Flux-Residual          L2-NORM 
          0                 1           2             5    6     1       0.1337184820E-01       5    6    1         0.7187945505E+00      0.1667084765E+01
          0                 2           2             4    7     1      -0.7071460553E-01       5    6    1        -0.3816879709E+01      0.9375036642E+01
          0                 3           2             4    7     1       0.1664827483E-01       5    6    1         0.9199942672E+00      0.2253539778E+01
          0                 4           2             4    7     1      -0.6624521471E-03       5    6    1        -0.3761576206E-01      0.9250720979E-01
          0                 5           1             7   13     1       0.1084669286E-04       7   13    1         0.6049662470E-03      0.1341089206E-02

    ------------------------------------------------
       NWT REQUIRED            5 OUTER ITERATIONS 
       AND A TOTAL OF          9 INNER ITERATIONS.
    ------------------------------------------------

 NO OUTPUT CONTROL FOR STRESS PERIOD   31   TIME STEP   17
 
 SOLVING FOR HEAD 
                                                   Max.-Head-Change                         Max.-Flux-Residual
  Residual-Control   Outer-Iter.   Inner-Iter.     Column Row Layer    Maximum-Head-Change  Column Row Layer    Maximum-Flux-Residual          L2-NORM 
          0                 1           2             5    6     1       0.1451695521E-01       5    6    1         0.7815308340E+00      0.1794390902E+01
          0                 2           2             7   13     1      -0.3441001927E-02       7   13    1        -0.1909716264E+00      0.2602666219E+00
          0                 3           2             7   13     1       0.2342517610E-03       7   13    1         0.1336404875E-01      0.1819181470E-01
          0                 4           1             7   13     1      -0.9316600899E-05       7   13    1        -0.5463123985E-03      0.7418562883E-03

    ------------------------------------------------
       NWT REQUIRED            4 OUTER ITERATIONS 
       AND A TOTAL OF          7 INNER ITERATIONS.
    ------------------------------------------------

 NO OUTPUT CONTROL FOR STRESS PERIOD   31   TIME STEP   18
 
 SOLVING FOR HEAD 
                                                   Max.-Head-Change                         Max.-Flux-Residual
  Residual-Control   Outer-Iter.   Inner-Iter.     Column Row Layer    Maximum-Head-Change  Column Row Layer    Maximum-Flux-Residual          L2-NORM 
          0                 1           2             5    6     1       0.1402786815E-01       5    6    1         0.7544677569E+00      0.1741104111E+01
          0                 2           2             4    7     1      -0.7075629021E-01       5    6    1        -0.3820447027E+01      0.9382794549E+01
          0                 3           2             4    7     1       0.1665085115E-01       5    6    1         0.9202452710E+00      0.2253615711E+01
          0                 4           2             4    7     1      -0.6625546695E-03       5    6    1        -0.3762615268E-01      0.9249820542E-01
          0                 5           1             7   13     1       0.1053203248E-04       7   13    1         0.5874399919E-03      0.1332926884E-02

    ------------------------------------------------
       NWT REQUIRED            5 OUTER ITERATIONS 
       AND A TOTAL OF          9 INNER ITERATIONS.
    ------------------------------------------------

 NO OUTPUT CONTROL FOR STRESS PERIOD   31   TIME STEP   19
 
 SOLVING FOR HEAD 
                                                   Max.-Head-Change                         Max.-Flux-Residual
  Residual-Control   Outer-Iter.   Inner-Iter.     Column Row Layer    Maximum-Head-Change  Column Row Layer    Maximum-Flux-Residual          L2-NORM 
          0                 1           2             5    6     1       0.1514424201E-01       5    6    1         0.8156192556E+00      0.1867447450E+01
          0                 2           2             7   13     1      -0.3444790089E-02       7   13    1        -0.1911796538E+00      0.2654373206E+00
          0                 3           2             7   13     1       0.2345092913E-03       7   13    1         0.1337855804E-01      0.1855338331E-01
          0                 4           1             7   13     1      -0.9326541246E-05       7   13    1        -0.5468860841E-03      0.7570959598E-03

    ------------------------------------------------
       NWT REQUIRED            4 OUTER ITERATIONS 
       AND A TOTAL OF          7 INNER ITERATIONS.
    ------------------------------------------------

 NO OUTPUT CONTROL FOR STRESS PERIOD   31   TIME STEP   20
 
 SOLVING FOR HEAD 
                                                   Max.-Head-Change                         Max.-Flux-Residual
  Residual-Control   Outer-Iter.   Inner-Iter.     Column Row Layer    Maximum-Head-Change  Column Row Layer    Maximum-Flux-Residual          L2-NORM 
          0                 1           2             5    6     1       0.1462827511E-01       5    6    1         0.7870741657E+00      0.1811104058E+01
          0                 2           2             4    7     1      -0.7079881193E-01       5    6    1        -0.3823707663E+01      0.9390038794E+01
          0                 3           2             4    7     1       0.1665418743E-01       5    6    1         0.9204746647E+00      0.2254905679E+01
          0                 4           2             4    7     1      -0.6626874057E-03       5    6    1        -0.3763564567E-01      0.9253879302E-01
          0                 5           1             7   13     1       0.1022518123E-04       7   13    1         0.5703458132E-03      0.1325576516E-02

    ------------------------------------------------
       NWT REQUIRED            5 OUTER ITERATIONS 
       AND A TOTAL OF          9 INNER ITERATIONS.
    ------------------------------------------------

 NO OUTPUT CONTROL FOR STRESS PERIOD   31   TIME STEP   21
 
 SOLVING FOR HEAD 
                                                   Max.-Head-Change                         Max.-Flux-Residual
  Residual-Control   Outer-Iter.   Inner-Iter.     Column Row Layer    Maximum-Head-Change  Column Row Layer    Maximum-Flux-Residual          L2-NORM 
          0                 1           2             5    6     1       0.1571920928E-01       5    6    1         0.8468241186E+00      0.1936566646E+01
          0                 2           2             7   13     1      -0.3448552500E-02       7   13    1        -0.1913863609E+00      0.2704442708E+00
          0                 3           2             7   13     1       0.2347684228E-03       7   13    1         0.1339316703E-01      0.1890338527E-01
          0                 4           1             7   13     1      -0.9338281268E-05       7   13    1        -0.5475645792E-03      0.7716262628E-03

    ------------------------------------------------
       NWT REQUIRED            4 OUTER ITERATIONS 
       AND A TOTAL OF          7 INNER ITERATIONS.
    ------------------------------------------------

 NO OUTPUT CONTROL FOR STRESS PERIOD   31   TIME STEP   22
 
 SOLVING FOR HEAD 
                                                   Max.-Head-Change                         Max.-Flux-Residual
  Residual-Control   Outer-Iter.   Inner-Iter.     Column Row Layer    Maximum-Head-Change  Column Row Layer    Maximum-Flux-Residual          L2-NORM 
          0                 1           2             5    6     1       0.1517928304E-01       5    6    1         0.8169596280E+00      0.1877488738E+01
          0                 2           2             4    7     1      -0.7084086109E-01       5    6    1        -0.3826696204E+01      0.9396853584E+01
          0                 3           2             4    7     1       0.1665705952E-01       5    6    1         0.9206848865E+00      0.2255374524E+01
          0                 4           2             4    7     1      -0.6628016884E-03       5    6    1        -0.3764434244E-01      0.9254685837E-01
          0                 5           1             7   13     1       0.9919333053E-05       7   13    1         0.5533031631E-03      0.1318368245E-02

    ------------------------------------------------
       NWT REQUIRED            5 OUTER ITERATIONS 
       AND A TOTAL OF          9 INNER ITERATIONS.
    ------------------------------------------------

 NO OUTPUT CONTROL FOR STRESS PERIOD   31   TIME STEP   23
 
 SOLVING FOR HEAD 
                                                   Max.-Head-Change                         Max.-Flux-Residual
  Residual-Control   Outer-Iter.   Inner-Iter.     Column Row Layer    Maximum-Head-Change  Column Row Layer    Maximum-Flux-Residual          L2-NORM 
          0                 1           2             5    6     1       0.1624749950E-01       5    6    1         0.8754593997E+00      0.2001896970E+01
          0                 2           2             7   13     1      -0.3452314767E-02       7   13    1        -0.1915931501E+00      0.2752637848E+00
          0                 3           2             7   13     1       0.2350232964E-03       7   13    1         0.1340754140E-01      0.1923991558E-01
          0                 4           1             7   13     1      -0.9348558709E-05       7   13    1        -0.5481583364E-03      0.7853339867E-03

    ------------------------------------------------
       NWT REQUIRED            4 OUTER ITERATIONS 
       AND A TOTAL OF          7 INNER ITERATIONS.
    ------------------------------------------------

 NO OUTPUT CONTROL FOR STRESS PERIOD   31   TIME STEP   24
 
 SOLVING FOR HEAD 
                                                   Max.-Head-Change                         Max.-Flux-Residual
  Residual-Control   Outer-Iter.   Inner-Iter.     Column Row Layer    Maximum-Head-Change  Column Row Layer    Maximum-Flux-Residual          L2-NORM 
          0                 1           2             5    6     1       0.1568600767E-01       5    6    1         0.8444084928E+00      0.1940366299E+01
          0                 2           2             4    7     1      -0.7088279057E-01       5    6    1        -0.3829441084E+01      0.9403273638E+01
          0                 3           2             4    7     1       0.1665992358E-01       5    6    1         0.9208779409E+00      0.2255817224E+01
          0                 4           2             4    7     1      -0.6629156517E-03       5    6    1        -0.3765232632E-01      0.9255441701E-01
          0                 5           1             7   13     1       0.9619156940E-05       7   13    1         0.5365811492E-03      0.1311535357E-02

    ------------------------------------------------
       NWT REQUIRED            5 OUTER ITERATIONS 
       AND A TOTAL OF          9 INNER ITERATIONS.
    ------------------------------------------------

 NO OUTPUT CONTROL FOR STRESS PERIOD   31   TIME STEP   25
 
 SOLVING FOR HEAD 
                                                   Max.-Head-Change                         Max.-Flux-Residual
  Residual-Control   Outer-Iter.   Inner-Iter.     Column Row Layer    Maximum-Head-Change  Column Row Layer    Maximum-Flux-Residual          L2-NORM 
          0                 1           2             5    6     1       0.1673418794E-01       5    6    1         0.9018067676E+00      0.2063638407E+01
          0                 2           2             7   13     1      -0.3456038638E-02       7   13    1        -0.1917978836E+00      0.2798920595E+00
          0                 3           2             7   13     1       0.2352766405E-03       7   13    1         0.1342182964E-01      0.1956351543E-01
          0                 4           1             7   13     1      -0.9357810823E-05       7   13    1        -0.5487029703E-03      0.7983880316E-03

    ------------------------------------------------
       NWT REQUIRED            4 OUTER ITERATIONS 
       AND A TOTAL OF          7 INNER ITERATIONS.
    ------------------------------------------------

 NO OUTPUT CONTROL FOR STRESS PERIOD   31   TIME STEP   26
 
 SOLVING FOR HEAD 
                                                   Max.-Head-Change                         Max.-Flux-Residual
  Residual-Control   Outer-Iter.   Inner-Iter.     Column Row Layer    Maximum-Head-Change  Column Row Layer    Maximum-Flux-Residual          L2-NORM 
          0                 1           2             5    6     1       0.1615348317E-01       5    6    1         0.8697003329E+00      0.1999918767E+01
          0                 2           2             4    7     1      -0.7092439644E-01       5    6    1        -0.3831970260E+01      0.9409332826E+01
          0                 3           2             4    7     1       0.1666276567E-01       5    6    1         0.9210557991E+00      0.2256235809E+01
          0                 4           2             4    7     1      -0.6630287415E-03       5    6    1        -0.3765967930E-01      0.9256137643E-01
          0                 5           1             7   13     1       0.9314419629E-05       7   13    1         0.5196018542E-03      0.1304568123E-02

    ------------------------------------------------
       NWT REQUIRED            5 OUTER ITERATIONS 
       AND A TOTAL OF          9 INNER ITERATIONS.
    ------------------------------------------------

 NO OUTPUT CONTROL FOR STRESS PERIOD   31   TIME STEP   27
 
 SOLVING FOR HEAD 
                                                   Max.-Head-Change                         Max.-Flux-Residual
  Residual-Control   Outer-Iter.   Inner-Iter.     Column Row Layer    Maximum-Head-Change  Column Row Layer    Maximum-Flux-Residual          L2-NORM 
          0                 1           2             5    6     1       0.1718337673E-01       5    8    1         0.9261710107E+00      0.2121984517E+01
          0                 2           2             7   13     1      -0.3459749138E-02       7   13    1        -0.1920019403E+00      0.2843290901E+00
          0                 3           2             7   13     1       0.2355295309E-03       7   13    1         0.1343609993E-01      0.1987375411E-01
          0                 4           1             7   13     1      -0.9368824160E-05       7   13    1        -0.5493276783E-03      0.8110406887E-03

    ------------------------------------------------
       NWT REQUIRED            4 OUTER ITERATIONS 
       AND A TOTAL OF          7 INNER ITERATIONS.
    ------------------------------------------------

 NO OUTPUT CONTROL FOR STRESS PERIOD   31   TIME STEP   28
 
 SOLVING FOR HEAD 
                                                   Max.-Head-Change                         Max.-Flux-Residual
  Residual-Control   Outer-Iter.   Inner-Iter.     Column Row Layer    Maximum-Head-Change  Column Row Layer    Maximum-Flux-Residual          L2-NORM 
          0                 1           2             5    6     1       0.1658554656E-01       5    6    1         0.8930478401E+00      0.2056314437E+01
          0                 2           2             4    7     1      -0.7096554363E-01       5    6    1        -0.3834305003E+01      0.9415058244E+01
          0                 3           2             4    7     1       0.1666557656E-01       5    6    1         0.9212199598E+00      0.2256631929E+01
          0                 4           2             4    7     1      -0.6631405887E-03       5    6    1        -0.3766646364E-01      0.9256805522E-01
          0                 5           1             7   13     1       0.9031517824E-05       7   13    1         0.5038430816E-03      0.1299367869E-02

    ------------------------------------------------
       NWT REQUIRED            5 OUTER ITERATIONS 
       AND A TOTAL OF          9 INNER ITERATIONS.
    ------------------------------------------------

 NO OUTPUT CONTROL FOR STRESS PERIOD   31   TIME STEP   29
 
 SOLVING FOR HEAD 
                                                   Max.-Head-Change                         Max.-Flux-Residual
  Residual-Control   Outer-Iter.   Inner-Iter.     Column Row Layer    Maximum-Head-Change  Column Row Layer    Maximum-Flux-Residual          L2-NORM 
          0                 1           2             5    6     1       0.1759925854E-01       5    8    1         0.9489607204E+00      0.2177168152E+01
          0                 2           2             7   13     1      -0.3463428811E-02       7   13    1        -0.1922043644E+00      0.2885798826E+00
          0                 3           2             7   13     1       0.2357807139E-03       7   13    1         0.1345027930E-01      0.2017108037E-01
          0                 4           1             7   13     1      -0.9379633490E-05       7   13    1        -0.5499519064E-03      0.8233851776E-03

    ------------------------------------------------
       NWT REQUIRED            4 OUTER ITERATIONS 
       AND A TOTAL OF          7 INNER ITERATIONS.
    ------------------------------------------------

 NO OUTPUT CONTROL FOR STRESS PERIOD   31   TIME STEP   30



 STREAM LISTING     PERIOD     31   STEP       30

 LAYER ROW COL. STREAM  RCH.  FLOW INTO     FLOW TO   FLOW OUT OF   OVRLND.     DIRECT     STREAM       STREAM     STREAM     STREAM   STREAMBED  STREAMBED
                SEG.NO.  NO.  STRM. RCH.    AQUIFER    STRM. RCH.    RUNOFF     PRECIP       ET          HEAD       DEPTH      WIDTH   CONDCTNC.   GRADIENT

   1    1    1     1     1    3.1124E+01  2.7164E-01   3.0852E+01  0.000E+00  0.000E+00  0.000E+00  1.09431E+03  1.259E+00  1.417E+01  6.378E-02  1.420E+00
   1    2    2     1     2    3.0852E+01  4.2045E-01   3.0432E+01  0.000E+00  0.000E+00  0.000E+00  1.08931E+03  1.256E+00  1.411E+01  9.879E-02  1.419E+00
   1    3    3     1     3    3.0432E+01  3.5834E-01   3.0074E+01  0.000E+00  0.000E+00  0.000E+00  1.08367E+03  1.252E+00  1.404E+01  8.427E-02  1.417E+00
   1    3    4     1     4    3.0074E+01  3.2975E-01   2.9744E+01  0.000E+00  0.000E+00  0.000E+00  1.07866E+03  1.249E+00  1.398E+01  7.761E-02  1.416E+00
   1    4    5     2     1    2.7744E+01  3.3390E-01   2.7410E+01  0.000E+00  0.000E+00  0.000E+00  1.07321E+03  1.281E+00  1.200E+01  7.800E-02  1.427E+00
   1    5    6     2     2    2.7410E+01  2.5635E-01   2.7154E+01  0.000E+00  0.000E+00  0.000E+00  1.06778E+03  1.273E+00  1.200E+01  6.000E-02  1.424E+00
   1    6    6     2     3    2.7154E+01  2.5592E-01   2.6898E+01  0.000E+00  0.000E+00  0.000E+00  1.06306E+03  1.265E+00  1.200E+01  6.000E-02  1.422E+00
   1    7    6     2     4    2.6898E+01  2.5549E-01   2.6642E+01  0.000E+00  0.000E+00  0.000E+00  1.05833E+03  1.258E+00  1.200E+01  6.000E-02  1.419E+00
   1    8    6     2     5    2.6642E+01  2.5506E-01   2.6387E+01  0.000E+00  0.000E+00  0.000E+00  1.05361E+03  1.251E+00  1.200E+01  6.000E-02  1.417E+00
   1    3    5     3     1    2.0000E+00  2.8252E-01   1.7175E+00  0.000E+00  0.000E+00  0.000E+00  1.07555E+03  1.909E+00  9.636E+00  7.227E-02  1.955E+00
   1    3    6     3     2    1.7175E+00  2.4905E-01   1.4684E+00  0.000E+00  0.000E+00  0.000E+00  1.07264E+03  1.727E+00  8.909E+00  6.682E-02  1.864E+00
   1    3    7     3     3    1.4684E+00  1.9718E-01   1.2712E+00  0.000E+00  0.000E+00  0.000E+00  1.06987E+03  1.555E+00  8.218E+00  5.547E-02  1.777E+00
   1    4    8     3     4    1.2712E+00  2.2567E-01   1.0456E+00  0.000E+00  0.000E+00  0.000E+00  1.06682E+03  1.364E+00  7.455E+00  6.709E-02  1.682E+00
   1    5    8     3     5    1.0456E+00  1.5790E-01   8.8768E-01  0.000E+00  0.000E+00  0.000E+00  1.06362E+03  1.164E+00  6.655E+00  4.991E-02  1.582E+00
   1    6    8     3     6    8.8768E-01  5.5980E-02   8.3170E-01  0.000E+00  0.000E+00  0.000E+00  1.06158E+03  1.036E+00  6.145E+00  1.844E-02  1.518E+00
   1    5   10     4     1    1.0000E+01  9.0919E-02   9.9091E+00  0.000E+00  0.000E+00  0.000E+00  1.07836E+03  6.368E-01  1.000E+01  2.500E-02  1.212E+00
   1    5    9     4     2    9.9091E+00  1.8158E-01   9.7275E+00  0.000E+00  0.000E+00  0.000E+00  1.07154E+03  6.315E-01  1.000E+01  5.000E-02  1.211E+00
   1    6    8     4     3    9.7275E+00  1.2689E-01   9.6006E+00  0.000E+00  0.000E+00  0.000E+00  1.06381E+03  6.256E-01  1.000E+01  3.500E-02  1.209E+00
   1    6    8     5     1    1.0432E+01  2.2686E-01   1.0205E+01  0.000E+00  0.000E+00  0.000E+00  1.05868E+03  6.790E-01  1.542E+01  6.166E-02  1.226E+00
   1    7    7     5     2    1.0205E+01  2.7894E-01   9.9265E+00  0.000E+00  0.000E+00  0.000E+00  1.05417E+03  6.732E-01  1.519E+01  7.594E-02  1.224E+00
   1    8    7     5     3    9.9265E+00  1.9221E-01   9.7343E+00  0.000E+00  0.000E+00  0.000E+00  1.04992E+03  6.676E-01  1.497E+01  5.241E-02  1.223E+00
   1    8    6     5     4    9.7343E+00  1.3577E-01   9.5985E+00  0.000E+00  0.000E+00  0.000E+00  1.04691E+03  6.637E-01  1.482E+01  3.706E-02  1.221E+00
   1    9    6     6     1    3.5986E+01  2.7095E-01   3.5715E+01  0.000E+00  0.000E+00  0.000E+00  1.04424E+03  1.516E+00  1.200E+01  6.000E-02  1.505E+00
   1   10    7     6     2    3.5715E+01  2.7054E-01   3.5444E+01  0.000E+00  0.000E+00  0.000E+00  1.03969E+03  1.509E+00  1.200E+01  6.000E-02  1.503E+00
   1   11    7     6     3    3.5444E+01  2.7013E-01   3.5174E+01  0.000E+00  0.000E+00  0.000E+00  1.03514E+03  1.502E+00  1.200E+01  6.000E-02  1.501E+00
   1   12    7     6     4    3.5174E+01  2.6971E-01   3.4904E+01  0.000E+00  0.000E+00  0.000E+00  1.03059E+03  1.495E+00  1.200E+01  6.000E-02  1.498E+00
   1   13    7     6     5    3.4904E+01  1.9637E-02   3.4885E+01  0.000E+00  0.000E+00  0.000E+00  1.02740E+03  1.492E+00  1.200E+01  2.400E-02  2.727E-01
   1   14    9     7     1    1.5000E+02  1.3853E+00   1.4861E+02  0.000E+00  0.000E+00  0.000E+00  1.03987E+03  2.288E+00  5.529E+01  5.593E-01  8.256E-01
   1   13    8     7     2    1.4861E+02  1.9927E+00   1.4662E+02  0.000E+00  0.000E+00  0.000E+00  1.03478E+03  2.279E+00  5.525E+01  6.147E-01  1.081E+00
   1   13    7     7     3    1.4662E+02  1.7340E+00   1.4489E+02  0.000E+00  0.000E+00  0.000E+00  1.02969E+03  2.269E+00  5.521E+01  5.584E-01  1.035E+00
   1   13    6     8     1    1.7977E+02  1.2228E+00   1.7855E+02  0.000E+00  0.000E+00  0.000E+00  1.02489E+03  3.011E+00  4.366E+01  4.449E-01  9.162E-01
   1   13    5     8     2    1.7855E+02  4.3306E-01   1.7812E+02  0.000E+00  0.000E+00  0.000E+00  1.01863E+03  3.006E+00  4.358E+01  4.441E-01  3.250E-01
   1   13    4     8     3    1.7812E+02 -1.4427E+00   1.7956E+02  0.000E+00  0.000E+00  0.000E+00  1.01238E+03  3.009E+00  4.363E+01  4.446E+00 -1.082E-01
   1   13    3     8     4    1.7956E+02 -3.0607E+00   1.8262E+02  0.000E+00  0.000E+00  0.000E+00  1.00615E+03  3.023E+00  4.383E+01  4.467E+00 -2.284E-01
   1   13    2     8     5    1.8262E+02 -2.2389E+00   1.8486E+02  0.000E+00  0.000E+00  0.000E+00  9.99914E+02  3.040E+00  4.407E+01  4.491E+00 -1.662E-01
   1   13    1     8     6    1.8486E+02 -1.8307E+00   1.8669E+02  0.000E+00  0.000E+00  0.000E+00  9.94927E+02  3.052E+00  4.426E+01  2.706E+00 -2.255E-01
   1    8    6     9     1    0.0000E+00  0.0000E+00   0.0000E+00  0.000E+00  0.000E+00  0.000E+00  1.07875E+03  0.000E+00  4.000E+00  0.000E+00  1.000E+00
   1    8    5     9     2    0.0000E+00  0.0000E+00   0.0000E+00  0.000E+00  0.000E+00  0.000E+00  1.07825E+03  0.000E+00  4.000E+00  0.000E+00  1.000E+00





UNSATURATED ZONE PACKAGE VOLUMETRIC BUDGET FOR  TIME STEP    30 STRESS PERIOD   31
  ------------------------------------------------------------------------------



     CUMULATIVE VOLUMES      L**3       RATES FOR THIS TIME STEP      L**3/T
     ------------------                 ------------------------

           IN:                                      IN:
           ---                                      ---
        INFILTRATION =  1128779823.1404          INFILTRATION =           0.8475

          OUT:                                     OUT:
          ----                                     ----
              UZF ET =   953911101.4459                UZF ET =          23.3217
        UZF RECHARGE =     1125167.5498          UZF RECHARGE =       0.0000E+00

            IN - OUT =   173743554.1448              IN - OUT =         -22.4742

          STORAGE:                                 STORAGE:
          --------                                 --------
      STORAGE CHANGE =   173744750.3869        STORAGE CHANGE =         -22.4738

 PERCENT DISCREPANCY IS DIFFERENCE BETWEEN IN-OUT MINUS CHANGE IN STORAGE
 DIVIDED BY THE AVERAGE OF IN AND OUT TIMES 100

 PERCENT DISCREPANCY =          -0.00     PERCENT DISCREPANCY =          -0.00






1
  VOLUMETRIC BUDGET FOR AGRICULTURAL FIELDS AT  END OF TIME STEP   30, STRESS PERIOD  31
  ------------------------------------------------------------------------------

     CUMULATIVE VOLUMES      L**3       RATES FOR THIS TIME STEP      L**3/T
     ------------------                 ------------------------

           IN:                                      IN:
           ---                                      ---
               AG WELLS  =   689677760.0000                 AG WELLS  =           0.0000
      DIVERSION SEGMENTS =   372159520.0000        DIVERSION SEGMENTS =           0.0000
           GW IRRIGATION =           0.0000             GW IRRIGATION =           0.0000
           SW IRRIGATION =           0.0000             SW IRRIGATION =           0.0000
        SYSTEM LOSSES GW =           0.0000          SYSTEM LOSSES GW =           0.0000
        SYSTEM LOSSES SW =           0.0000          SYSTEM LOSSES SW =           0.0000

                TOTAL IN =  1061837312.0000                  TOTAL IN =           0.0000

          OUT:                                     OUT:
          ----                                     ----
               AG WELLS  =           0.0000                 AG WELLS  =           0.0000
      DIVERSION SEGMENTS =           0.0000        DIVERSION SEGMENTS =           0.0000
           GW IRRIGATION =   689677760.0000             GW IRRIGATION =           0.0000
           SW IRRIGATION =   372166560.0000             SW IRRIGATION =           0.0000
        SYSTEM LOSSES GW =           0.0000          SYSTEM LOSSES GW =           0.0000
        SYSTEM LOSSES SW =           0.0000          SYSTEM LOSSES SW =           0.0000

               TOTAL OUT =  1061844352.0000                 TOTAL OUT =           0.0000

                IN - OUT =       -7040.0000                  IN - OUT =           0.0000

     PERCENT DISCREPANCY =          -0.00         PERCENT DISCREPANCY =           0.00



1
  VOLUMETRIC BUDGET FOR ENTIRE MODEL AT END OF TIME STEP   30, STRESS PERIOD  31
  ------------------------------------------------------------------------------

     CUMULATIVE VOLUMES      L**3       RATES FOR THIS TIME STEP      L**3/T
     ------------------                 ------------------------

           IN:                                      IN:
           ---                                      ---
             STORAGE     =  1049947456.0000               STORAGE     =           2.5131
       CONSTANT HEAD     =           0.0000         CONSTANT HEAD     =           0.0000
     HEAD DEP BOUNDS     =    22768782.0000       HEAD DEP BOUNDS     =           0.2891
      STREAM LEAKAGE     =   937436160.0000        STREAM LEAKAGE     =          13.0072
        UZF RECHARGE     =     1125167.3750          UZF RECHARGE     =           0.0000
               GW ET     =           0.0000                 GW ET     =           0.0000
     SURFACE LEAKAGE     =           0.0000       SURFACE LEAKAGE     =           0.0000
           AG WELLS      =           0.0000             AG WELLS      =           0.0000

                TOTAL IN =  2011277568.0000                  TOTAL IN =          15.8094

          OUT:                                     OUT:
          ----                                     ----
             STORAGE     =   507672896.0000               STORAGE     =           6.9475
       CONSTANT HEAD     =           0.0000         CONSTANT HEAD     =           0.0000
     HEAD DEP BOUNDS     =    22755550.0000       HEAD DEP BOUNDS     =           0.2889
      STREAM LEAKAGE     =   791186816.0000        STREAM LEAKAGE     =           8.5729
        UZF RECHARGE     =           0.0000          UZF RECHARGE     =           0.0000
               GW ET     =           0.0000                 GW ET     =           0.0000
     SURFACE LEAKAGE     =           0.0000       SURFACE LEAKAGE     =           0.0000
           AG WELLS      =   689677760.0000             AG WELLS      =           0.0000

               TOTAL OUT =  2011292928.0000                 TOTAL OUT =          15.8094

                IN - OUT =      -15360.0000                  IN - OUT =       2.6703E-05

     PERCENT DISCREPANCY =          -0.00         PERCENT DISCREPANCY =           0.00






         TIME SUMMARY AT END OF TIME STEP   30 IN STRESS PERIOD   31
                    SECONDS     MINUTES      HOURS       DAYS        YEARS
                    -----------------------------------------------------------
   TIME STEP LENGTH  87667.      1461.1      24.352      1.0147     2.77799E-03
 STRESS PERIOD TIME 2.63000E+06  43833.      730.56      30.440     8.33397E-02
         TOTAL TIME 7.89864E+07 1.31644E+06  21941.      914.20      2.5029    
1
1
                            STRESS PERIOD NO.   32, LENGTH =   2630000.    
                            -----------------------------------------------

                              NUMBER OF TIME STEPS =    30

                               MULTIPLIER FOR DELT =     1.000

                            INITIAL TIME STEP SIZE =   87666.66    

 REUSING NON-PARAMETER GHB CELLS FROM LAST STRESS PERIOD

      2 GHB CELLS

 REUSING STREAM SEGMENT DATA FROM LAST STRESS PERIOD



            AREAL INFILTRATION RATE
 READING ON UNIT   19 WITH FORMAT: (FREE)              

            1           2           3           4           5           6           7           8           9          10
 ........................................................................................................................
   1   1.0000E-10  2.0000E-10   0.000       0.000       0.000       0.000       0.000       0.000       0.000       0.000    
   2   2.0000E-10  1.0000E-10  2.0000E-10   0.000       0.000      8.0000E-10  8.0000E-10  5.0000E-10   0.000       0.000    
   3    0.000      5.0000E-10  1.0000E-10  1.0000E-10  8.0000E-10  8.0000E-10  5.0000E-10  5.0000E-10   0.000       0.000    
   4   8.0000E-10  5.0000E-10  1.0000E-10  1.0000E-10  1.0000E-10  1.0000E-10  1.0000E-10  1.0000E-10  2.0000E-10   0.000    
   5   8.0000E-10  5.0000E-10  1.0000E-10  1.0000E-10  1.0000E-10  1.0000E-10  1.0000E-10  1.0000E-10  1.0000E-10  1.0000E-10
   6   8.0000E-10  5.0000E-10  5.0000E-10  2.0000E-10  2.0000E-10  1.0000E-10  1.0000E-10  1.0000E-10  1.0000E-10  5.0000E-10
   7   8.0000E-10  5.0000E-10  5.0000E-10  2.0000E-10  2.0000E-10  1.0000E-10  1.0000E-10  2.0000E-10  2.0000E-10   0.000    
   8    0.000      5.0000E-10  5.0000E-10  2.0000E-10  2.0000E-10  1.0000E-10  1.0000E-10  2.0000E-10  5.0000E-10   0.000    
   9    0.000      5.0000E-10  5.0000E-10  2.0000E-10  2.0000E-10  1.0000E-10  1.0000E-10  2.0000E-10  5.0000E-10   0.000    
  10    0.000      5.0000E-10  5.0000E-10  2.0000E-10  2.0000E-10  1.0000E-10  1.0000E-10  2.0000E-10  5.0000E-10  8.0000E-10
  11    0.000      1.0000E-10  1.0000E-10  1.0000E-10  1.0000E-10  1.0000E-10  1.0000E-10  2.0000E-10  5.0000E-10   0.000    
  12   1.0000E-10  1.0000E-10  1.0000E-10  1.0000E-10  1.0000E-10  1.0000E-10  1.0000E-10  1.0000E-10  2.0000E-10   0.000    
  13   1.0000E-10  1.0000E-10  2.0000E-10  2.0000E-10  2.0000E-10  2.0000E-10  2.0000E-10  1.0000E-10  1.0000E-10   0.000    
  14    0.000      2.0000E-10  5.0000E-10  5.0000E-10  5.0000E-10  5.0000E-10  5.0000E-10  2.0000E-10  1.0000E-10   0.000    
  15    0.000       0.000      8.0000E-10  8.0000E-10  8.0000E-10  8.0000E-10   0.000       0.000       0.000       0.000    

                  ET RATE =  4.000000E-07

 USING ET EXTINCTION DEPTH FROM PREVIOUS STRESS PERIOD. CURRENT PERIOD IS:      32

 USING EXTINCTION WATER CONTENT FROM PREVIOUS STRESS PERIOD. CURRENT PERIOD IS:      32

 USING AIR ENTRY PRESSURE FROM PREVIOUS STRESS PERIOD. CURRENT PERIOD IS:      32

 USING ROOT PRESSURE HEAD FROM PREVIOUS STRESS PERIOD. CURRENT PERIOD IS:      32

 USING ROOT ACTIVITY FROM PREVIOUS STRESS PERIOD. CURRENT PERIOD IS:      32

 PROCESSING AG STRESS PERIOD DATA

 READING AG STRESS PERIOD DATA

 READING IRRIGATION SEGMENT

 READING IRRIGATION WELL

 READING SUPPLEMENTAL WELL

 END PROCESSING AG STRESS PERIOD DATA OPTIONS
 
 SOLVING FOR HEAD 
                                                   Max.-Head-Change                         Max.-Flux-Residual
  Residual-Control   Outer-Iter.   Inner-Iter.     Column Row Layer    Maximum-Head-Change  Column Row Layer    Maximum-Flux-Residual          L2-NORM 
          0                 1           2             5    6     1       0.1698481380E-01       5    6    1         0.9146601924E+00      0.2089287966E+01
          0                 2           2             4    7     1      -0.2993761810E+00       5    6    1        -0.1609348408E+02      0.3940852764E+02
          0                 3           2             4    7     1       0.2038589851E-01       5    8    1         0.1130826788E+01      0.2760022477E+01
          0                 4           2             4    7     1      -0.8111763598E-03       5    8    1        -0.4623235244E-01      0.1128771033E+00
          0                 5           1             4    7     1       0.1000215227E-04       5    8    1         0.5846395629E-03      0.1435479902E-02

    ------------------------------------------------
       NWT REQUIRED            5 OUTER ITERATIONS 
       AND A TOTAL OF          9 INNER ITERATIONS.
    ------------------------------------------------

 NO OUTPUT CONTROL FOR STRESS PERIOD   32   TIME STEP    1
 
 SOLVING FOR HEAD 
                                                   Max.-Head-Change                         Max.-Flux-Residual
  Residual-Control   Outer-Iter.   Inner-Iter.     Column Row Layer    Maximum-Head-Change  Column Row Layer    Maximum-Flux-Residual          L2-NORM 
          0                 1           2             5    8     1       0.2474593078E-01       5    8    1         0.1344463810E+01      0.2903361099E+01
          0                 2           2             4    7     1      -0.1166280407E+00       5    8    1        -0.6319421042E+01      0.1544960756E+02
          0                 3           2             4    7     1       0.7941866291E-02       5    8    1         0.4422959383E+00      0.1081178186E+01
          0                 4           2             4    7     1      -0.3160146280E-03       5    8    1        -0.1808413122E-01      0.4420578812E-01
          0                 5           1             4    7     1       0.3896597030E-05       5    6    1         0.2288096593E-03      0.5608006270E-03

    ------------------------------------------------
       NWT REQUIRED            5 OUTER ITERATIONS 
       AND A TOTAL OF          9 INNER ITERATIONS.
    ------------------------------------------------

 NO OUTPUT CONTROL FOR STRESS PERIOD   32   TIME STEP    2
 
 SOLVING FOR HEAD 
                                                   Max.-Head-Change                         Max.-Flux-Residual
  Residual-Control   Outer-Iter.   Inner-Iter.     Column Row Layer    Maximum-Head-Change  Column Row Layer    Maximum-Flux-Residual          L2-NORM 
          0                 1           2             5    8     1       0.2702168405E-01       5    8    1         0.1469498072E+01      0.3165436333E+01
          0                 2           2             4    7     1      -0.3005565733E+00       5    8    1        -0.1619959637E+02      0.3962247740E+02
          0                 3           2             4    7     1       0.2046629571E-01       5    8    1         0.1133755201E+01      0.2773177647E+01
          0                 4           2             4    7     1      -0.8143754200E-03       5    8    1        -0.4635211485E-01      0.1134102423E+00
          0                 5           1             4    7     1       0.1004159852E-04       5    6    1         0.5862876153E-03      0.1441092695E-02

    ------------------------------------------------
       NWT REQUIRED            5 OUTER ITERATIONS 
       AND A TOTAL OF          9 INNER ITERATIONS.
    ------------------------------------------------

 NO OUTPUT CONTROL FOR STRESS PERIOD   32   TIME STEP    3
 
 SOLVING FOR HEAD 
                                                   Max.-Head-Change                         Max.-Flux-Residual
  Residual-Control   Outer-Iter.   Inner-Iter.     Column Row Layer    Maximum-Head-Change  Column Row Layer    Maximum-Flux-Residual          L2-NORM 
          0                 1           2             5    8     1       0.3448455051E-01       5    8    1         0.1880640422E+01      0.3996879298E+01
          0                 2           2             4    7     1      -0.1169674544E+00       5    8    1        -0.6377839169E+01      0.1554981774E+02
          0                 3           2             4    7     1       0.7964982836E-02       5    8    1         0.4464076465E+00      0.1088221152E+01
          0                 4           2             4    7     1      -0.3169344387E-03       5    8    1        -0.1825448102E-01      0.4449429683E-01
          0                 5           1             4    7     1       0.3907938420E-05       5    8    1         0.2310936536E-03      0.5637762332E-03

    ------------------------------------------------
       NWT REQUIRED            5 OUTER ITERATIONS 
       AND A TOTAL OF          9 INNER ITERATIONS.
    ------------------------------------------------

 NO OUTPUT CONTROL FOR STRESS PERIOD   32   TIME STEP    4
 
 SOLVING FOR HEAD 
                                                   Max.-Head-Change                         Max.-Flux-Residual
  Residual-Control   Outer-Iter.   Inner-Iter.     Column Row Layer    Maximum-Head-Change  Column Row Layer    Maximum-Flux-Residual          L2-NORM 
          0                 1           2             5    8     1       0.3622449296E-01       5    8    1         0.1975717325E+01      0.4218260802E+01
          0                 2           2             4    7     1      -0.3008189962E+00       5    8    1        -0.1625020268E+02      0.3970728945E+02
          0                 3           2             4    7     1       0.2048417446E-01       5    8    1         0.1137318464E+01      0.2779118884E+01
          0                 4           2             4    7     1      -0.8150867886E-03       5    8    1        -0.4649987991E-01      0.1136503635E+00
          0                 5           1             4    7     1       0.1005036984E-04       5    6    1         0.5881924803E-03      0.1442952718E-02

    ------------------------------------------------
       NWT REQUIRED            5 OUTER ITERATIONS 
       AND A TOTAL OF          9 INNER ITERATIONS.
    ------------------------------------------------

 NO OUTPUT CONTROL FOR STRESS PERIOD   32   TIME STEP    5
 
 SOLVING FOR HEAD 
                                                   Max.-Head-Change                         Max.-Flux-Residual
  Residual-Control   Outer-Iter.   Inner-Iter.     Column Row Layer    Maximum-Head-Change  Column Row Layer    Maximum-Flux-Residual          L2-NORM 
          0                 1           2             5    8     1       0.4318637033E-01       5    8    1         0.2358869373E+01      0.5021138025E+01
          0                 2           2             4    7     1      -0.1172400427E+00       5    8    1        -0.6425665383E+01      0.1563260559E+02
          0                 3           2             4    7     1       0.7983548261E-02       5    8    1         0.4497749759E+00      0.1094053489E+01
          0                 4           2             4    7     1      -0.3176731587E-03       5    8    1        -0.1839409769E-01      0.4473536316E-01
          0                 5           1             4    7     1       0.3917047355E-05       5    8    1         0.2329915544E-03      0.5667495575E-03

    ------------------------------------------------
       NWT REQUIRED            5 OUTER ITERATIONS 
       AND A TOTAL OF          9 INNER ITERATIONS.
    ------------------------------------------------

 NO OUTPUT CONTROL FOR STRESS PERIOD   32   TIME STEP    6
 
 SOLVING FOR HEAD 
                                                   Max.-Head-Change                         Max.-Flux-Residual
  Residual-Control   Outer-Iter.   Inner-Iter.     Column Row Layer    Maximum-Head-Change  Column Row Layer    Maximum-Flux-Residual          L2-NORM 
          0                 1           2             5    8     1       0.4446004979E-01       5    8    1         0.2427915099E+01      0.5200016825E+01
          0                 2           2             4    7     1      -0.3011020482E+00       5    8    1        -0.1629542196E+02      0.3978661037E+02
          0                 3           2             4    7     1       0.2050345658E-01       5    8    1         0.1140501876E+01      0.2784679510E+01
          0                 4           2             4    7     1      -0.8158540051E-03       5    8    1        -0.4663183737E-01      0.1138759214E+00
          0                 5           1             4    7     1       0.1005983006E-04       5    8    1         0.5899588050E-03      0.1444911083E-02

    ------------------------------------------------
       NWT REQUIRED            5 OUTER ITERATIONS 
       AND A TOTAL OF          9 INNER ITERATIONS.
    ------------------------------------------------

 NO OUTPUT CONTROL FOR STRESS PERIOD   32   TIME STEP    7
 
 SOLVING FOR HEAD 
                                                   Max.-Head-Change                         Max.-Flux-Residual
  Residual-Control   Outer-Iter.   Inner-Iter.     Column Row Layer    Maximum-Head-Change  Column Row Layer    Maximum-Flux-Residual          L2-NORM 
          0                 1           2             5    8     1       0.5098760144E-01       5    8    1         0.2786835364E+01      0.5967734389E+01
          0                 2           2             5    7     1      -0.1176004728E+00       5    8    1        -0.6468461380E+01      0.1571011852E+02
          0                 3           2             5    7     1       0.8008094137E-02       5    8    1         0.4527866455E+00      0.1099509816E+01
          0                 4           2             5    7     1      -0.3186498526E-03       5    8    1        -0.1851882266E-01      0.4496113232E-01
          0                 5           1             5    7     1       0.3929096230E-05       5    8    1         0.2346773142E-03      0.5697159578E-03

    ------------------------------------------------
       NWT REQUIRED            5 OUTER ITERATIONS 
       AND A TOTAL OF          9 INNER ITERATIONS.
    ------------------------------------------------

 NO OUTPUT CONTROL FOR STRESS PERIOD   32   TIME STEP    8
 
 SOLVING FOR HEAD 
                                                   Max.-Head-Change                         Max.-Flux-Residual
  Residual-Control   Outer-Iter.   Inner-Iter.     Column Row Layer    Maximum-Head-Change  Column Row Layer    Maximum-Flux-Residual          L2-NORM 
          0                 1           2             5    8     1       0.5185637366E-01       5    8    1         0.2833306707E+01      0.6107315717E+01
          0                 2           2             4    7     1      -0.3014012448E+00       5    8    1        -0.1633596052E+02      0.3986087986E+02
          0                 3           2             4    7     1       0.2052383682E-01       5    8    1         0.1143355276E+01      0.2789890640E+01
          0                 4           2             4    7     1      -0.8166649231E-03       5    8    1        -0.4675006536E-01      0.1140881162E+00
          0                 5           1             4    7     1       0.1006982884E-04       5    8    1         0.5915606148E-03      0.1446902527E-02

    ------------------------------------------------
       NWT REQUIRED            5 OUTER ITERATIONS 
       AND A TOTAL OF          9 INNER ITERATIONS.
    ------------------------------------------------

 NO OUTPUT CONTROL FOR STRESS PERIOD   32   TIME STEP    9
 
 SOLVING FOR HEAD 
                                                   Max.-Head-Change                         Max.-Flux-Residual
  Residual-Control   Outer-Iter.   Inner-Iter.     Column Row Layer    Maximum-Head-Change  Column Row Layer    Maximum-Flux-Residual          L2-NORM 
          0                 1           2             5    8     1       0.5800622675E-01       5    8    1         0.3171183425E+01      0.6840341946E+01
          0                 2           2             5    6     1      -0.1181126942E+00       5    8    1        -0.6506895518E+01      0.1578279033E+02
          0                 3           2             5    6     1       0.8042977524E-02       5    8    1         0.4554790473E+00      0.1104597898E+01
          0                 4           2             5    6     1      -0.3200378806E-03       5    8    1        -0.1862913679E-01      0.4516907573E-01
          0                 5           1             5    6     1       0.3946199552E-05       5    8    1         0.2360885592E-03      0.5722382903E-03

    ------------------------------------------------
       NWT REQUIRED            5 OUTER ITERATIONS 
       AND A TOTAL OF          9 INNER ITERATIONS.
    ------------------------------------------------

 NO OUTPUT CONTROL FOR STRESS PERIOD   32   TIME STEP   10
 
 SOLVING FOR HEAD 
                                                   Max.-Head-Change                         Max.-Flux-Residual
  Residual-Control   Outer-Iter.   Inner-Iter.     Column Row Layer    Maximum-Head-Change  Column Row Layer    Maximum-Flux-Residual          L2-NORM 
          0                 1           2             5    8     1       0.5852242343E-01       5    8    1         0.3198025391E+01      0.6944593097E+01
          0                 2           2             4    7     1      -0.3017129007E+00       5    8    1        -0.1637243174E+02      0.3993053038E+02
          0                 3           2             4    7     1       0.2054506439E-01       5    8    1         0.1145921936E+01      0.2794781103E+01
          0                 4           2             4    7     1      -0.8175095621E-03       5    8    1        -0.4685636673E-01      0.1142879655E+00
          0                 5           1             4    7     1       0.1008024387E-04       5    8    1         0.5929977899E-03      0.1448966030E-02

    ------------------------------------------------
       NWT REQUIRED            5 OUTER ITERATIONS 
       AND A TOTAL OF          9 INNER ITERATIONS.
    ------------------------------------------------

 NO OUTPUT CONTROL FOR STRESS PERIOD   32   TIME STEP   11
 
 SOLVING FOR HEAD 
                                                   Max.-Head-Change                         Max.-Flux-Residual
  Residual-Control   Outer-Iter.   Inner-Iter.     Column Row Layer    Maximum-Head-Change  Column Row Layer    Maximum-Flux-Residual          L2-NORM 
          0                 1           2             5    8     1       0.6434294473E-01       5    8    1         0.3517578659E+01      0.7645235129E+01
          0                 2           2             5    6     1      -0.1187180893E+00       5    8    1        -0.6541534336E+01      0.1585101093E+02
          0                 3           2             5    6     1       0.8084203024E-02       5    8    1         0.4579037769E+00      0.1109373005E+01
          0                 4           2             5    6     1      -0.3216782801E-03       5    8    1        -0.1872830829E-01      0.4536424933E-01
          0                 5           1             5    6     1       0.3966426407E-05       5    8    1         0.2373453694E-03      0.5747745529E-03

    ------------------------------------------------
       NWT REQUIRED            5 OUTER ITERATIONS 
       AND A TOTAL OF          9 INNER ITERATIONS.
    ------------------------------------------------

 NO OUTPUT CONTROL FOR STRESS PERIOD   32   TIME STEP   12
 
 SOLVING FOR HEAD 
                                                   Max.-Head-Change                         Max.-Flux-Residual
  Residual-Control   Outer-Iter.   Inner-Iter.     Column Row Layer    Maximum-Head-Change  Column Row Layer    Maximum-Flux-Residual          L2-NORM 
          0                 1           2             5    8     1       0.6455148148E-01       5    8    1         0.3527315862E+01      0.7717980304E+01
          0                 2           2             4    7     1      -0.3020337902E+00       5    8    1        -0.1640536011E+02      0.3999595119E+02
          0                 3           2             4    7     1       0.2056691974E-01       5    8    1         0.1148238853E+01      0.2799377107E+01
          0                 4           2             4    7     1      -0.8183791864E-03       5    8    1        -0.4695228280E-01      0.1144762427E+00
          0                 5           1             4    7     1       0.1009096671E-04       5    8    1         0.5942917478E-03      0.1451000809E-02

    ------------------------------------------------
       NWT REQUIRED            5 OUTER ITERATIONS 
       AND A TOTAL OF          9 INNER ITERATIONS.
    ------------------------------------------------

 NO OUTPUT CONTROL FOR STRESS PERIOD   32   TIME STEP   13
 
 SOLVING FOR HEAD 
                                                   Max.-Head-Change                         Max.-Flux-Residual
  Residual-Control   Outer-Iter.   Inner-Iter.     Column Row Layer    Maximum-Head-Change  Column Row Layer    Maximum-Flux-Residual          L2-NORM 
          0                 1           2             5    8     1       0.7008411039E-01       5    8    1         0.3830873350E+01      0.8388970068E+01
          0                 2           2             5    6     1      -0.1192700459E+00       5    8    1        -0.6572863081E+01      0.1591513823E+02
          0                 3           2             5    6     1       0.8121789607E-02       5    8    1         0.4600968077E+00      0.1113861956E+01
          0                 4           2             5    6     1      -0.3231738840E-03       5    8    1        -0.1881800331E-01      0.4554768732E-01
          0                 5           1             5    6     1       0.3984867745E-05       5    8    1         0.2384820687E-03      0.5771009845E-03

    ------------------------------------------------
       NWT REQUIRED            5 OUTER ITERATIONS 
       AND A TOTAL OF          9 INNER ITERATIONS.
    ------------------------------------------------

 NO OUTPUT CONTROL FOR STRESS PERIOD   32   TIME STEP   14
 
 SOLVING FOR HEAD 
                                                   Max.-Head-Change                         Max.-Flux-Residual
  Residual-Control   Outer-Iter.   Inner-Iter.     Column Row Layer    Maximum-Head-Change  Column Row Layer    Maximum-Flux-Residual          L2-NORM 
          0                 1           2             5    8     1       0.7002328986E-01       5    8    1         0.3825655673E+01      0.8433683894E+01
          0                 2           2             4    7     1      -0.3023610920E+00       5    8    1        -0.1643519340E+02      0.4005749423E+02
          0                 3           2             4    7     1       0.2058921088E-01       5    8    1         0.1150337611E+01      0.2803700453E+01
          0                 4           2             4    7     1      -0.8192661549E-03       5    8    1        -0.4703912881E-01      0.1146533896E+00
          0                 5           1             4    7     1       0.1010190350E-04       5    8    1         0.5954607566E-03      0.1452918986E-02

    ------------------------------------------------
       NWT REQUIRED            5 OUTER ITERATIONS 
       AND A TOTAL OF          9 INNER ITERATIONS.
    ------------------------------------------------

 NO OUTPUT CONTROL FOR STRESS PERIOD   32   TIME STEP   15
 
 SOLVING FOR HEAD 
                                                   Max.-Head-Change                         Max.-Flux-Residual
  Residual-Control   Outer-Iter.   Inner-Iter.     Column Row Layer    Maximum-Head-Change  Column Row Layer    Maximum-Flux-Residual          L2-NORM 
          0                 1           2             5    8     1       0.7530339699E-01       5    8    1         0.4115202130E+01      0.9077708862E+01
          0                 2           2             5    6     1      -0.1197747512E+00       5    8    1        -0.6601295232E+01      0.1597550101E+02
          0                 3           2             5    6     1       0.8156158586E-02       5    8    1         0.4620870816E+00      0.1118082836E+01
          0                 4           2             5    6     1      -0.3245414555E-03       5    8    1        -0.1889940552E-01      0.4571938616E-01
          0                 5           1             5    6     1       0.4001730122E-05       5    8    1         0.2395137017E-03      0.5790644932E-03

    ------------------------------------------------
       NWT REQUIRED            5 OUTER ITERATIONS 
       AND A TOTAL OF          9 INNER ITERATIONS.
    ------------------------------------------------

 NO OUTPUT CONTROL FOR STRESS PERIOD   32   TIME STEP   16
 
 SOLVING FOR HEAD 
                                                   Max.-Head-Change                         Max.-Flux-Residual
  Residual-Control   Outer-Iter.   Inner-Iter.     Column Row Layer    Maximum-Head-Change  Column Row Layer    Maximum-Flux-Residual          L2-NORM 
          0                 1           2             5    8     1       0.7500594267E-01       5    8    1         0.4096864846E+01      0.9097454629E+01
          0                 2           2             4    7     1      -0.3026923717E+00       5    8    1        -0.1646231362E+02      0.4011547470E+02
          0                 3           2             4    7     1       0.2061177213E-01       5    8    1         0.1152245154E+01      0.2807776548E+01
          0                 4           2             4    7     1      -0.8201638755E-03       5    8    1        -0.4711802685E-01      0.1148210111E+00
          0                 5           1             4    7     1       0.1011297258E-04       5    8    1         0.5965203854E-03      0.1454902276E-02

    ------------------------------------------------
       NWT REQUIRED            5 OUTER ITERATIONS 
       AND A TOTAL OF          9 INNER ITERATIONS.
    ------------------------------------------------

 NO OUTPUT CONTROL FOR STRESS PERIOD   32   TIME STEP   17
 
 SOLVING FOR HEAD 
                                                   Max.-Head-Change                         Max.-Flux-Residual
  Residual-Control   Outer-Iter.   Inner-Iter.     Column Row Layer    Maximum-Head-Change  Column Row Layer    Maximum-Flux-Residual          L2-NORM 
          0                 1           2             5    8     1       0.8006420836E-01       5    8    1         0.4374119115E+01      0.9717024520E+01
          0                 2           2             5    6     1      -0.1202375373E+00       5    8    1        -0.6627186208E+01      0.1603239701E+02
          0                 3           2             5    6     1       0.8187673045E-02       5    8    1         0.4638994768E+00      0.1122066220E+01
          0                 4           2             5    6     1      -0.3257954432E-03       5    8    1        -0.1897353247E-01      0.4588219857E-01
          0                 5           1             5    6     1       0.4017192314E-05       5    8    1         0.2404530974E-03      0.5811612489E-03

    ------------------------------------------------
       NWT REQUIRED            5 OUTER ITERATIONS 
       AND A TOTAL OF          9 INNER ITERATIONS.
    ------------------------------------------------

 NO OUTPUT CONTROL FOR STRESS PERIOD   32   TIME STEP   18
 
 SOLVING FOR HEAD 
                                                   Max.-Head-Change                         Max.-Flux-Residual
  Residual-Control   Outer-Iter.   Inner-Iter.     Column Row Layer    Maximum-Head-Change  Column Row Layer    Maximum-Flux-Residual          L2-NORM 
          0                 1           2             5    8     1       0.7955854632E-01       5    8    1         0.4344254329E+01      0.9714521237E+01
          0                 2           2             4    7     1      -0.3030255326E+00       5    8    1        -0.1648705188E+02      0.4017018049E+02
          0                 3           2             4    7     1       0.2063446082E-01       5    8    1         0.1153984830E+01      0.2811623239E+01
          0                 4           2             4    7     1      -0.8210666704E-03       5    8    1        -0.4718994893E-01      0.1149793679E+00
          0                 5           1             4    7     1       0.1012410451E-04       5    8    1         0.5974841515E-03      0.1456804107E-02

    ------------------------------------------------
       NWT REQUIRED            5 OUTER ITERATIONS 
       AND A TOTAL OF          9 INNER ITERATIONS.
    ------------------------------------------------

 NO OUTPUT CONTROL FOR STRESS PERIOD   32   TIME STEP   19
 
 SOLVING FOR HEAD 
                                                   Max.-Head-Change                         Max.-Flux-Residual
  Residual-Control   Outer-Iter.   Inner-Iter.     Column Row Layer    Maximum-Head-Change  Column Row Layer    Maximum-Flux-Residual          L2-NORM 
          0                 1           2             5    8     1       0.8442099575E-01       5    8    1         0.4610673415E+01      0.1031188151E+02
          0                 2           2             5    6     1      -0.1206630642E+00       5    8    1        -0.6650840928E+01      0.1608609849E+02
          0                 3           2             5    6     1       0.8216650308E-02       5    8    1         0.4655553365E+00      0.1125826430E+01
          0                 4           2             5    6     1      -0.3269484735E-03       5    8    1        -0.1904125710E-01      0.4603599761E-01
          0                 5           1             5    6     1       0.4031409797E-05       5    8    1         0.2413113943E-03      0.5831142115E-03

    ------------------------------------------------
       NWT REQUIRED            5 OUTER ITERATIONS 
       AND A TOTAL OF          9 INNER ITERATIONS.
    ------------------------------------------------

 NO OUTPUT CONTROL FOR STRESS PERIOD   32   TIME STEP   20
 
 SOLVING FOR HEAD 
                                                   Max.-Head-Change                         Max.-Flux-Residual
  Residual-Control   Outer-Iter.   Inner-Iter.     Column Row Layer    Maximum-Head-Change  Column Row Layer    Maximum-Flux-Residual          L2-NORM 
          0                 1           2             5    8     1       0.8373155773E-01       5    8    1         0.4570647466E+01      0.1028949181E+02
          0                 2           2             4    7     1      -0.3033587751E+00       5    8    1        -0.1650969051E+02      0.4022186838E+02
          0                 3           2             4    7     1       0.2065715450E-01       5    8    1         0.1155576550E+01      0.2815257745E+01
          0                 4           2             4    7     1      -0.8219696666E-03       5    8    1        -0.4725572368E-01      0.1151290959E+00
          0                 5           1             4    7     1       0.1013523878E-04       5    8    1         0.5983634894E-03      0.1458624763E-02

    ------------------------------------------------
       NWT REQUIRED            5 OUTER ITERATIONS 
       AND A TOTAL OF          9 INNER ITERATIONS.
    ------------------------------------------------

 NO OUTPUT CONTROL FOR STRESS PERIOD   32   TIME STEP   21
 
 SOLVING FOR HEAD 
                                                   Max.-Head-Change                         Max.-Flux-Residual
  Residual-Control   Outer-Iter.   Inner-Iter.     Column Row Layer    Maximum-Head-Change  Column Row Layer    Maximum-Flux-Residual          L2-NORM 
          0                 1           2             5    8     1       0.8842111307E-01       5    8    1         0.4827512459E+01      0.1086667895E+02
          0                 2           2             5    6     1      -0.1210553774E+00       5    8    1        -0.6672524140E+01      0.1613685089E+02
          0                 3           2             5    6     1       0.8243365851E-02       5    8    1         0.4670731924E+00      0.1129380311E+01
          0                 4           2             5    6     1      -0.3280115076E-03       5    8    1        -0.1910333735E-01      0.4618123442E-01
          0                 5           1             5    6     1       0.4044517549E-05       5    8    1         0.2420981436E-03      0.5849326064E-03

    ------------------------------------------------
       NWT REQUIRED            5 OUTER ITERATIONS 
       AND A TOTAL OF          9 INNER ITERATIONS.
    ------------------------------------------------

 NO OUTPUT CONTROL FOR STRESS PERIOD   32   TIME STEP   22
 
 SOLVING FOR HEAD 
                                                   Max.-Head-Change                         Max.-Flux-Residual
  Residual-Control   Outer-Iter.   Inner-Iter.     Column Row Layer    Maximum-Head-Change  Column Row Layer    Maximum-Flux-Residual          L2-NORM 
          0                 1           2             5    8     1       0.8756890009E-01       5    8    1         0.4778499561E+01      0.1082650318E+02
          0                 2           2             4    7     1      -0.3036905784E+00       5    8    1        -0.1653047506E+02      0.4027077265E+02
          0                 3           2             4    7     1       0.2067974966E-01       5    8    1         0.1157037626E+01      0.2818696146E+01
          0                 4           2             4    7     1      -0.8228687462E-03       5    8    1        -0.4731607154E-01      0.1152707873E+00
          0                 5           1             4    7     1       0.1014632478E-04       5    8    1         0.5991683631E-03      0.1460407573E-02

    ------------------------------------------------
       NWT REQUIRED            5 OUTER ITERATIONS 
       AND A TOTAL OF          9 INNER ITERATIONS.
    ------------------------------------------------

 NO OUTPUT CONTROL FOR STRESS PERIOD   32   TIME STEP   23
 
 SOLVING FOR HEAD 
                                                   Max.-Head-Change                         Max.-Flux-Residual
  Residual-Control   Outer-Iter.   Inner-Iter.     Column Row Layer    Maximum-Head-Change  Column Row Layer    Maximum-Flux-Residual          L2-NORM 
          0                 1           2             5    8     1       0.9210501875E-01       5    8    1         0.5026898095E+01      0.1138545689E+02
          0                 2           2             5    6     1      -0.1214180386E+00       5    8    1        -0.6692462031E+01      0.1618488397E+02
          0                 3           2             5    6     1       0.8268062195E-02       5    8    1         0.4684688768E+00      0.1132744096E+01
          0                 4           2             5    6     1      -0.3289941962E-03       5    8    1        -0.1916042077E-01      0.4631879359E-01
          0                 5           1             5    6     1       0.4056634306E-05       5    8    1         0.2428215562E-03      0.5866910165E-03

    ------------------------------------------------
       NWT REQUIRED            5 OUTER ITERATIONS 
       AND A TOTAL OF          9 INNER ITERATIONS.
    ------------------------------------------------

 NO OUTPUT CONTROL FOR STRESS PERIOD   32   TIME STEP   24
 
 SOLVING FOR HEAD 
                                                   Max.-Head-Change                         Max.-Flux-Residual
  Residual-Control   Outer-Iter.   Inner-Iter.     Column Row Layer    Maximum-Head-Change  Column Row Layer    Maximum-Flux-Residual          L2-NORM 
          0                 1           2             5    8     1       0.9110841367E-01       5    8    1         0.4969924138E+01      0.1132943690E+02
          0                 2           2             4    7     1      -0.3040196767E+00       5    8    1        -0.1654961687E+02      0.4031710479E+02
          0                 3           2             4    7     1       0.2070216020E-01       5    8    1         0.1158382963E+01      0.2821952955E+01
          0                 4           2             4    7     1      -0.8237604819E-03       5    8    1        -0.4737161308E-01      0.1154050292E+00
          0                 5           1             4    7     1       0.1015732049E-04       5    8    1         0.5999074106E-03      0.1462106660E-02

    ------------------------------------------------
       NWT REQUIRED            5 OUTER ITERATIONS 
       AND A TOTAL OF          9 INNER ITERATIONS.
    ------------------------------------------------

 NO OUTPUT CONTROL FOR STRESS PERIOD   32   TIME STEP   25
 
 SOLVING FOR HEAD 
                                                   Max.-Head-Change                         Max.-Flux-Residual
  Residual-Control   Outer-Iter.   Inner-Iter.     Column Row Layer    Maximum-Head-Change  Column Row Layer    Maximum-Flux-Residual          L2-NORM 
          0                 1           2             5    8     1       0.9550816884E-01       5    8    1         0.5210808086E+01      0.1187158992E+02
          0                 2           2             5    6     1      -0.1217541527E+00       5    8    1        -0.6710852380E+01      0.1623039644E+02
          0                 3           2             5    6     1       0.8290950782E-02       5    8    1         0.4697562337E+00      0.1135931753E+01
          0                 4           2             5    6     1      -0.3299049520E-03       5    8    1        -0.1921307359E-01      0.4644905637E-01
          0                 5           1             5    6     1       0.4067864242E-05       5    8    1         0.2434888406E-03      0.5883164528E-03

    ------------------------------------------------
       NWT REQUIRED            5 OUTER ITERATIONS 
       AND A TOTAL OF          9 INNER ITERATIONS.
    ------------------------------------------------

 NO OUTPUT CONTROL FOR STRESS PERIOD   32   TIME STEP   26
 
 SOLVING FOR HEAD 
                                                   Max.-Head-Change                         Max.-Flux-Residual
  Residual-Control   Outer-Iter.   Inner-Iter.     Column Row Layer    Maximum-Head-Change  Column Row Layer    Maximum-Flux-Residual          L2-NORM 
          0                 1           2             5    8     1       0.9438307562E-01       5    8    1         0.5146759527E+01      0.1180118147E+02
          0                 2           2             4    7     1      -0.3043449691E+00       5    8    1        -0.1656729979E+02      0.4036105380E+02
          0                 3           2             4    7     1       0.2072431120E-01       5    8    1         0.1159625521E+01      0.2825041646E+01
          0                 4           2             4    7     1      -0.8246418916E-03       5    8    1        -0.4742288709E-01      0.1155322531E+00
          0                 5           1             4    7     1       0.1016818839E-04       5    8    1         0.6005880196E-03      0.1463724986E-02

    ------------------------------------------------
       NWT REQUIRED            5 OUTER ITERATIONS 
       AND A TOTAL OF          9 INNER ITERATIONS.
    ------------------------------------------------

 NO OUTPUT CONTROL FOR STRESS PERIOD   32   TIME STEP   27
 
 SOLVING FOR HEAD 
                                                   Max.-Head-Change                         Max.-Flux-Residual
  Residual-Control   Outer-Iter.   Inner-Iter.     Column Row Layer    Maximum-Head-Change  Column Row Layer    Maximum-Flux-Residual          L2-NORM 
          0                 1           2             5    8     1       0.9866111252E-01       5    8    1         0.5380944547E+01      0.1232796389E+02
          0                 2           2             5    6     1      -0.1220664473E+00       5    8    1        -0.6727865400E+01      0.1627357994E+02
          0                 3           2             5    6     1       0.8312217329E-02       5    8    1         0.4709471800E+00      0.1138956060E+01
          0                 4           2             5    6     1      -0.3307511658E-03       5    8    1        -0.1926178321E-01      0.4657279645E-01
          0                 5           1             5    6     1       0.4078298536E-05       5    8    1         0.2441061404E-03      0.5898693528E-03

    ------------------------------------------------
       NWT REQUIRED            5 OUTER ITERATIONS 
       AND A TOTAL OF          9 INNER ITERATIONS.
    ------------------------------------------------

 NO OUTPUT CONTROL FOR STRESS PERIOD   32   TIME STEP   28
 
 SOLVING FOR HEAD 
                                                   Max.-Head-Change                         Max.-Flux-Residual
  Residual-Control   Outer-Iter.   Inner-Iter.     Column Row Layer    Maximum-Head-Change  Column Row Layer    Maximum-Flux-Residual          L2-NORM 
          0                 1           2             5    8     1       0.9742191312E-01       5    8    1         0.5310596773E+01      0.1224453185E+02
          0                 2           2             4    7     1      -0.3046655841E+00       5    8    1        -0.1658368292E+02      0.4040279434E+02
          0                 3           2             4    7     1       0.2074614336E-01       5    8    1         0.1160776531E+01      0.2827974596E+01
          0                 4           2             4    7     1      -0.8255106165E-03       5    8    1        -0.4747036204E-01      0.1156530769E+00
          0                 5           1             4    7     1       0.1017890037E-04       5    8    1         0.6012167814E-03      0.1465277872E-02

    ------------------------------------------------
       NWT REQUIRED            5 OUTER ITERATIONS 
       AND A TOTAL OF          9 INNER ITERATIONS.
    ------------------------------------------------

 NO OUTPUT CONTROL FOR STRESS PERIOD   32   TIME STEP   29
 
 SOLVING FOR HEAD 
                                                   Max.-Head-Change                         Max.-Flux-Residual
  Residual-Control   Outer-Iter.   Inner-Iter.     Column Row Layer    Maximum-Head-Change  Column Row Layer    Maximum-Flux-Residual          L2-NORM 
          0                 1           2             5    8     1       0.1015921904E+00       5    8    1         0.5538838803E+01      0.1275707358E+02
          0                 2           2             5    6     1      -0.1223573241E+00       5    8    1        -0.6743654244E+01      0.1631458712E+02
          0                 3           2             5    6     1       0.8332025403E-02       5    8    1         0.4720524279E+00      0.1141827754E+01
          0                 4           2             5    6     1      -0.3315393452E-03       5    8    1        -0.1930698777E-01      0.4669019247E-01
          0                 5           1             5    6     1       0.4088017279E-05       5    8    1         0.2446790190E-03      0.5913179628E-03

    ------------------------------------------------
       NWT REQUIRED            5 OUTER ITERATIONS 
       AND A TOTAL OF          9 INNER ITERATIONS.
    ------------------------------------------------

 NO OUTPUT CONTROL FOR STRESS PERIOD   32   TIME STEP   30



 STREAM LISTING     PERIOD     32   STEP       30

 LAYER ROW COL. STREAM  RCH.  FLOW INTO     FLOW TO   FLOW OUT OF   OVRLND.     DIRECT     STREAM       STREAM     STREAM     STREAM   STREAMBED  STREAMBED
                SEG.NO.  NO.  STRM. RCH.    AQUIFER    STRM. RCH.    RUNOFF     PRECIP       ET          HEAD       DEPTH      WIDTH   CONDCTNC.   GRADIENT

   1    1    1     1     1    2.8124E+01  2.5914E-01   2.7865E+01  0.000E+00  0.000E+00  0.000E+00  1.09427E+03  1.223E+00  1.364E+01  6.136E-02  1.408E+00
   1    2    2     1     2    2.7865E+01  4.0087E-01   2.7464E+01  0.000E+00  0.000E+00  0.000E+00  1.08928E+03  1.218E+00  1.358E+01  9.503E-02  1.406E+00
   1    3    3     1     3    2.7464E+01  3.4142E-01   2.7123E+01  0.000E+00  0.000E+00  0.000E+00  1.08363E+03  1.213E+00  1.351E+01  8.103E-02  1.404E+00
   1    3    4     1     4    2.7123E+01  3.1402E-01   2.6809E+01  0.000E+00  0.000E+00  0.000E+00  1.07862E+03  1.209E+00  1.344E+01  7.461E-02  1.403E+00
   1    4    5     2     1    2.4809E+01  3.2738E-01   2.4481E+01  0.000E+00  0.000E+00  0.000E+00  1.07313E+03  1.197E+00  1.200E+01  7.800E-02  1.399E+00
   1    5    6     2     2    2.4481E+01  2.5133E-01   2.4230E+01  0.000E+00  0.000E+00  0.000E+00  1.06770E+03  1.189E+00  1.200E+01  6.000E-02  1.396E+00
   1    6    6     2     3    2.4230E+01  2.5089E-01   2.3979E+01  0.000E+00  0.000E+00  0.000E+00  1.06297E+03  1.181E+00  1.200E+01  6.000E-02  1.394E+00
   1    7    6     2     4    2.3979E+01  2.5044E-01   2.3729E+01  0.000E+00  0.000E+00  0.000E+00  1.05825E+03  1.174E+00  1.200E+01  6.000E-02  1.391E+00
   1    8    6     2     5    2.3729E+01  2.5000E-01   2.3479E+01  0.000E+00  0.000E+00  0.000E+00  1.05353E+03  1.167E+00  1.200E+01  6.000E-02  1.389E+00
   1    3    5     3     1    2.0000E+00  2.8252E-01   1.7175E+00  0.000E+00  0.000E+00  0.000E+00  1.07555E+03  1.909E+00  9.636E+00  7.227E-02  1.955E+00
   1    3    6     3     2    1.7175E+00  2.4905E-01   1.4684E+00  0.000E+00  0.000E+00  0.000E+00  1.07264E+03  1.727E+00  8.909E+00  6.682E-02  1.864E+00
   1    3    7     3     3    1.4684E+00  1.9718E-01   1.2712E+00  0.000E+00  0.000E+00  0.000E+00  1.06987E+03  1.555E+00  8.218E+00  5.547E-02  1.777E+00
   1    4    8     3     4    1.2712E+00  2.2567E-01   1.0456E+00  0.000E+00  0.000E+00  0.000E+00  1.06682E+03  1.364E+00  7.455E+00  6.709E-02  1.682E+00
   1    5    8     3     5    1.0456E+00  1.5790E-01   8.8768E-01  0.000E+00  0.000E+00  0.000E+00  1.06362E+03  1.164E+00  6.655E+00  4.991E-02  1.582E+00
   1    6    8     3     6    8.8768E-01  5.5980E-02   8.3170E-01  0.000E+00  0.000E+00  0.000E+00  1.06158E+03  1.036E+00  6.145E+00  1.844E-02  1.518E+00
   1    5   10     4     1    1.0000E+01  9.0919E-02   9.9091E+00  0.000E+00  0.000E+00  0.000E+00  1.07836E+03  6.368E-01  1.000E+01  2.500E-02  1.212E+00
   1    5    9     4     2    9.9091E+00  1.8158E-01   9.7275E+00  0.000E+00  0.000E+00  0.000E+00  1.07154E+03  6.315E-01  1.000E+01  5.000E-02  1.211E+00
   1    6    8     4     3    9.7275E+00  1.2689E-01   9.6006E+00  0.000E+00  0.000E+00  0.000E+00  1.06381E+03  6.256E-01  1.000E+01  3.500E-02  1.209E+00
   1    6    8     5     1    1.0432E+01  2.2686E-01   1.0205E+01  0.000E+00  0.000E+00  0.000E+00  1.05868E+03  6.790E-01  1.542E+01  6.166E-02  1.226E+00
   1    7    7     5     2    1.0205E+01  2.7894E-01   9.9265E+00  0.000E+00  0.000E+00  0.000E+00  1.05417E+03  6.732E-01  1.519E+01  7.594E-02  1.224E+00
   1    8    7     5     3    9.9265E+00  1.9221E-01   9.7343E+00  0.000E+00  0.000E+00  0.000E+00  1.04992E+03  6.676E-01  1.497E+01  5.241E-02  1.223E+00
   1    8    6     5     4    9.7343E+00  1.3577E-01   9.5985E+00  0.000E+00  0.000E+00  0.000E+00  1.04691E+03  6.637E-01  1.482E+01  3.706E-02  1.221E+00
   1    9    6     6     1    9.5985E+00  2.2097E-01   9.3776E+00  0.000E+00  0.000E+00  0.000E+00  1.04341E+03  6.828E-01  1.200E+01  6.000E-02  1.228E+00
   1   10    7     6     2    9.3776E+00  2.2039E-01   9.1572E+00  0.000E+00  0.000E+00  0.000E+00  1.03885E+03  6.732E-01  1.200E+01  6.000E-02  1.224E+00
   1   11    7     6     3    9.1572E+00  2.1981E-01   8.9374E+00  0.000E+00  0.000E+00  0.000E+00  1.03430E+03  6.636E-01  1.200E+01  6.000E-02  1.221E+00
   1   12    7     6     4    8.9374E+00  2.1923E-01   8.7181E+00  0.000E+00  0.000E+00  0.000E+00  1.02974E+03  6.539E-01  1.200E+01  6.000E-02  1.218E+00
   1   13    7     6     5    8.7181E+00 -1.7097E-03   8.7198E+00  0.000E+00  0.000E+00  0.000E+00  1.02656E+03  6.490E-01  1.200E+01  2.400E-01 -2.375E-03
   1   14    9     7     1    1.5000E+02  1.3867E+00   1.4861E+02  0.000E+00  0.000E+00  0.000E+00  1.03987E+03  2.288E+00  5.529E+01  5.593E-01  8.265E-01
   1   13    8     7     2    1.4861E+02  1.9972E+00   1.4662E+02  0.000E+00  0.000E+00  0.000E+00  1.03478E+03  2.279E+00  5.525E+01  6.147E-01  1.083E+00
   1   13    7     7     3    1.4662E+02  1.7436E+00   1.4487E+02  0.000E+00  0.000E+00  0.000E+00  1.02969E+03  2.269E+00  5.521E+01  5.584E-01  1.041E+00
   1   13    6     8     1    1.5359E+02  1.0956E+00   1.5250E+02  0.000E+00  0.000E+00  0.000E+00  1.02471E+03  2.838E+00  4.115E+01  4.194E-01  8.709E-01
   1   13    5     8     2    1.5250E+02  3.5054E-01   1.5215E+02  0.000E+00  0.000E+00  0.000E+00  1.01846E+03  2.833E+00  4.108E+01  4.186E-01  2.791E-01
   1   13    4     8     3    1.5215E+02 -1.8203E+00   1.5397E+02  0.000E+00  0.000E+00  0.000E+00  1.01221E+03  2.838E+00  4.115E+01  4.194E+00 -1.447E-01
   1   13    3     8     4    1.5397E+02 -3.3516E+00   1.5732E+02  0.000E+00  0.000E+00  0.000E+00  1.00598E+03  2.856E+00  4.141E+01  4.220E+00 -2.647E-01
   1   13    2     8     5    1.5732E+02 -2.5379E+00   1.5986E+02  0.000E+00  0.000E+00  0.000E+00  9.99751E+02  2.876E+00  4.171E+01  4.250E+00 -1.991E-01
   1   13    1     8     6    1.5986E+02 -2.0066E+00   1.6186E+02  0.000E+00  0.000E+00  0.000E+00  9.94767E+02  2.892E+00  4.193E+01  2.564E+00 -2.609E-01
   1    8    6     9     1    2.3479E+01  0.0000E+00   2.3479E+01  0.000E+00  0.000E+00  0.000E+00  1.08253E+03  3.782E+00  4.000E+00  0.000E+00  2.261E+00
   1    8    5     9     2    2.3479E+01  0.0000E+00   2.3479E+01  0.000E+00  0.000E+00  0.000E+00  1.08203E+03  3.782E+00  4.000E+00  0.000E+00  2.261E+00





UNSATURATED ZONE PACKAGE VOLUMETRIC BUDGET FOR  TIME STEP    30 STRESS PERIOD   32
  ------------------------------------------------------------------------------



     CUMULATIVE VOLUMES      L**3       RATES FOR THIS TIME STEP      L**3/T
     ------------------                 ------------------------

           IN:                                      IN:
           ---                                      ---
        INFILTRATION =  1368261698.2668          INFILTRATION =          61.4653

          OUT:                                     OUT:
          ----                                     ----
              UZF ET =  1113861118.8223                UZF ET =          60.8175
        UZF RECHARGE =     1125167.5498          UZF RECHARGE =       0.0000E+00

            IN - OUT =   253275411.8948              IN - OUT =           0.6478

          STORAGE:                                 STORAGE:
          --------                                 --------
      STORAGE CHANGE =   253276604.9208        STORAGE CHANGE =           0.6478

 PERCENT DISCREPANCY IS DIFFERENCE BETWEEN IN-OUT MINUS CHANGE IN STORAGE
 DIVIDED BY THE AVERAGE OF IN AND OUT TIMES 100

 PERCENT DISCREPANCY =          -0.00     PERCENT DISCREPANCY =           0.00






1
  VOLUMETRIC BUDGET FOR AGRICULTURAL FIELDS AT  END OF TIME STEP   30, STRESS PERIOD  32
  ------------------------------------------------------------------------------

     CUMULATIVE VOLUMES      L**3       RATES FOR THIS TIME STEP      L**3/T
     ------------------                 ------------------------

           IN:                                      IN:
           ---                                      ---
               AG WELLS  =   865141440.0000                 AG WELLS  =          37.1387
      DIVERSION SEGMENTS =   433948000.0000        DIVERSION SEGMENTS =          23.4787
           GW IRRIGATION =           0.0000             GW IRRIGATION =           0.0000
           SW IRRIGATION =           0.0000             SW IRRIGATION =           0.0000
        SYSTEM LOSSES GW =           0.0000          SYSTEM LOSSES GW =           0.0000
        SYSTEM LOSSES SW =           0.0000          SYSTEM LOSSES SW =           0.0000

                TOTAL IN =  1299089408.0000                  TOTAL IN =          60.6173

          OUT:                                     OUT:
          ----                                     ----
               AG WELLS  =           0.0000                 AG WELLS  =           0.0000
      DIVERSION SEGMENTS =           0.0000        DIVERSION SEGMENTS =           0.0000
           GW IRRIGATION =   865141440.0000             GW IRRIGATION =          37.1387
           SW IRRIGATION =   433956032.0000             SW IRRIGATION =          23.4791
        SYSTEM LOSSES GW =           0.0000          SYSTEM LOSSES GW =           0.0000
        SYSTEM LOSSES SW =           0.0000          SYSTEM LOSSES SW =           0.0000

               TOTAL OUT =  1299097472.0000                 TOTAL OUT =          60.6178

                IN - OUT =       -8064.0000                  IN - OUT =      -4.6921E-04

     PERCENT DISCREPANCY =          -0.00         PERCENT DISCREPANCY =          -0.00



1
  VOLUMETRIC BUDGET FOR ENTIRE MODEL AT END OF TIME STEP   30, STRESS PERIOD  32
  ------------------------------------------------------------------------------

     CUMULATIVE VOLUMES      L**3       RATES FOR THIS TIME STEP      L**3/T
     ------------------                 ------------------------

           IN:                                      IN:
           ---                                      ---
             STORAGE     =  1219817728.0000               STORAGE     =          34.5564
       CONSTANT HEAD     =           0.0000         CONSTANT HEAD     =           0.0000
     HEAD DEP BOUNDS     =    23529318.0000       HEAD DEP BOUNDS     =           0.2892
      STREAM LEAKAGE     =   970261440.0000        STREAM LEAKAGE     =          12.5010
        UZF RECHARGE     =     1125167.3750          UZF RECHARGE     =           0.0000
               GW ET     =           0.0000                 GW ET     =           0.0000
     SURFACE LEAKAGE     =           0.0000       SURFACE LEAKAGE     =           0.0000
           AG WELLS      =           0.0000             AG WELLS      =           0.0000

                TOTAL IN =  2214733568.0000                  TOTAL IN =          47.3466

          OUT:                                     OUT:
          ----                                     ----
             STORAGE     =   508611328.0000               STORAGE     =           0.2029
       CONSTANT HEAD     =           0.0000         CONSTANT HEAD     =           0.0000
     HEAD DEP BOUNDS     =    23512102.0000       HEAD DEP BOUNDS     =           0.2869
      STREAM LEAKAGE     =   817484224.0000        STREAM LEAKAGE     =           9.7182
        UZF RECHARGE     =           0.0000          UZF RECHARGE     =           0.0000
               GW ET     =           0.0000                 GW ET     =           0.0000
     SURFACE LEAKAGE     =           0.0000       SURFACE LEAKAGE     =           0.0000
           AG WELLS      =   865141440.0000             AG WELLS      =          37.1387

               TOTAL OUT =  2214749184.0000                 TOTAL OUT =          47.3466

                IN - OUT =      -15616.0000                  IN - OUT =       2.6703E-05

     PERCENT DISCREPANCY =          -0.00         PERCENT DISCREPANCY =           0.00






         TIME SUMMARY AT END OF TIME STEP   30 IN STRESS PERIOD   32
                    SECONDS     MINUTES      HOURS       DAYS        YEARS
                    -----------------------------------------------------------
   TIME STEP LENGTH  87667.      1461.1      24.352      1.0147     2.77799E-03
 STRESS PERIOD TIME 2.63000E+06  43833.      730.56      30.440     8.33397E-02
         TOTAL TIME 8.16164E+07 1.36027E+06  22671.      944.63      2.5863    
1
1
                            STRESS PERIOD NO.   33, LENGTH =   2630000.    
                            -----------------------------------------------

                              NUMBER OF TIME STEPS =    30

                               MULTIPLIER FOR DELT =     1.000

                            INITIAL TIME STEP SIZE =   87666.66    

 REUSING NON-PARAMETER GHB CELLS FROM LAST STRESS PERIOD

      2 GHB CELLS

 REUSING STREAM SEGMENT DATA FROM LAST STRESS PERIOD



            AREAL INFILTRATION RATE
 READING ON UNIT   19 WITH FORMAT: (FREE)              

            1           2           3           4           5           6           7           8           9          10
 ........................................................................................................................
   1   1.0000E-10  2.0000E-10   0.000       0.000       0.000       0.000       0.000       0.000       0.000       0.000    
   2   2.0000E-10  1.0000E-10  2.0000E-10   0.000       0.000      8.0000E-10  8.0000E-10  5.0000E-10   0.000       0.000    
   3    0.000      5.0000E-10  1.0000E-10  1.0000E-10  8.0000E-10  8.0000E-10  5.0000E-10  5.0000E-10   0.000       0.000    
   4   8.0000E-10  5.0000E-10  1.0000E-10  1.0000E-10  1.0000E-10  1.0000E-10  1.0000E-10  1.0000E-10  2.0000E-10   0.000    
   5   8.0000E-10  5.0000E-10  1.0000E-10  1.0000E-10  1.0000E-10  1.0000E-10  1.0000E-10  1.0000E-10  1.0000E-10  1.0000E-10
   6   8.0000E-10  5.0000E-10  5.0000E-10  2.0000E-10  2.0000E-10  1.0000E-10  1.0000E-10  1.0000E-10  1.0000E-10  5.0000E-10
   7   8.0000E-10  5.0000E-10  5.0000E-10  2.0000E-10  2.0000E-10  1.0000E-10  1.0000E-10  2.0000E-10  2.0000E-10   0.000    
   8    0.000      5.0000E-10  5.0000E-10  2.0000E-10  2.0000E-10  1.0000E-10  1.0000E-10  2.0000E-10  5.0000E-10   0.000    
   9    0.000      5.0000E-10  5.0000E-10  2.0000E-10  2.0000E-10  1.0000E-10  1.0000E-10  2.0000E-10  5.0000E-10   0.000    
  10    0.000      5.0000E-10  5.0000E-10  2.0000E-10  2.0000E-10  1.0000E-10  1.0000E-10  2.0000E-10  5.0000E-10  8.0000E-10
  11    0.000      1.0000E-10  1.0000E-10  1.0000E-10  1.0000E-10  1.0000E-10  1.0000E-10  2.0000E-10  5.0000E-10   0.000    
  12   1.0000E-10  1.0000E-10  1.0000E-10  1.0000E-10  1.0000E-10  1.0000E-10  1.0000E-10  1.0000E-10  2.0000E-10   0.000    
  13   1.0000E-10  1.0000E-10  2.0000E-10  2.0000E-10  2.0000E-10  2.0000E-10  2.0000E-10  1.0000E-10  1.0000E-10   0.000    
  14    0.000      2.0000E-10  5.0000E-10  5.0000E-10  5.0000E-10  5.0000E-10  5.0000E-10  2.0000E-10  1.0000E-10   0.000    
  15    0.000       0.000      8.0000E-10  8.0000E-10  8.0000E-10  8.0000E-10   0.000       0.000       0.000       0.000    

                  ET RATE =  3.250000E-07

 USING ET EXTINCTION DEPTH FROM PREVIOUS STRESS PERIOD. CURRENT PERIOD IS:      33

 USING EXTINCTION WATER CONTENT FROM PREVIOUS STRESS PERIOD. CURRENT PERIOD IS:      33

 USING AIR ENTRY PRESSURE FROM PREVIOUS STRESS PERIOD. CURRENT PERIOD IS:      33

 USING ROOT PRESSURE HEAD FROM PREVIOUS STRESS PERIOD. CURRENT PERIOD IS:      33

 USING ROOT ACTIVITY FROM PREVIOUS STRESS PERIOD. CURRENT PERIOD IS:      33

 PROCESSING AG STRESS PERIOD DATA

 READING AG STRESS PERIOD DATA

 READING IRRIGATION SEGMENT

 READING IRRIGATION WELL

 READING SUPPLEMENTAL WELL

 END PROCESSING AG STRESS PERIOD DATA OPTIONS
 
 SOLVING FOR HEAD 
                                                   Max.-Head-Change                         Max.-Flux-Residual
  Residual-Control   Outer-Iter.   Inner-Iter.     Column Row Layer    Maximum-Head-Change  Column Row Layer    Maximum-Flux-Residual          L2-NORM 
          0                 1           2             5    8     1       0.1002506237E+00       5    8    1         0.5462885296E+01      0.1266143498E+02
          0                 2           2             4    7     1      -0.2358315373E+00       5    8    1        -0.1288727175E+02      0.3135732964E+02
          0                 3           2             4    7     1       0.1605899459E-01       5    8    1         0.9020881776E+00      0.2194876499E+01
          0                 4           2             4    7     1      -0.6390036518E-03       5    8    1        -0.3689484803E-01      0.8976480659E-01
          0                 5           1             4    7     1       0.7879190314E-05       5    8    1         0.4675254149E-03      0.1137408633E-02

    ------------------------------------------------
       NWT REQUIRED            5 OUTER ITERATIONS 
       AND A TOTAL OF          9 INNER ITERATIONS.
    ------------------------------------------------

 NO OUTPUT CONTROL FOR STRESS PERIOD   33   TIME STEP    1
 
 SOLVING FOR HEAD 
                                                   Max.-Head-Change                         Max.-Flux-Residual
  Residual-Control   Outer-Iter.   Inner-Iter.     Column Row Layer    Maximum-Head-Change  Column Row Layer    Maximum-Flux-Residual          L2-NORM 
          0                 1           2             5    8     1       0.1023494445E+00       5    8    1         0.5576319963E+01      0.1293373878E+02
          0                 2           2             5    8     1      -0.4156703879E-01       5    8    1        -0.2298011056E+01      0.5451605248E+01
          0                 3           2             4    7     1       0.2520323061E-01       5    8    1         0.1406771430E+01      0.3441718417E+01
          0                 4           2             4    7     1      -0.2420791388E-02       5    8    1        -0.1379337373E+00      0.3377706066E+00
          0                 5           2             4    7     1      -0.1395958544E-02       4    7    1        -0.7915668500E-01      0.1938841974E+00
          0                 6           2             4    7     1      -0.1402537645E-02       5    8    1        -0.7952981181E-01      0.1948063144E+00
          0                 7           1             4    7     1       0.1732117685E-04       4    7    1         0.1009383951E-02      0.2472731379E-02

    ------------------------------------------------
       NWT REQUIRED            7 OUTER ITERATIONS 
       AND A TOTAL OF         13 INNER ITERATIONS.
    ------------------------------------------------

 NO OUTPUT CONTROL FOR STRESS PERIOD   33   TIME STEP    2
 
 SOLVING FOR HEAD 
                                                   Max.-Head-Change                         Max.-Flux-Residual
  Residual-Control   Outer-Iter.   Inner-Iter.     Column Row Layer    Maximum-Head-Change  Column Row Layer    Maximum-Flux-Residual          L2-NORM 
          0                 1           2             5    8     1       0.9810493411E-01       5    8    1         0.5340442033E+01      0.1251488417E+02
          0                 2           2             5    7     1      -0.1766738477E+00       5    8    1        -0.9683978776E+01      0.2353427515E+02
          0                 3           2             5    7     1       0.1203069476E-01       5    8    1         0.6778710643E+00      0.1647304813E+01
          0                 4           2             5    7     1      -0.4787132625E-03       5    8    1        -0.2772500107E-01      0.6737113292E-01
          0                 5           1             5    7     1       0.5902748800E-05       5    8    1         0.3513611655E-03      0.8537884450E-03

    ------------------------------------------------
       NWT REQUIRED            5 OUTER ITERATIONS 
       AND A TOTAL OF          9 INNER ITERATIONS.
    ------------------------------------------------

 NO OUTPUT CONTROL FOR STRESS PERIOD   33   TIME STEP    3
 
 SOLVING FOR HEAD 
                                                   Max.-Head-Change                         Max.-Flux-Residual
  Residual-Control   Outer-Iter.   Inner-Iter.     Column Row Layer    Maximum-Head-Change  Column Row Layer    Maximum-Flux-Residual          L2-NORM 
          0                 1           2             5    8     1       0.9866053888E-01       5    8    1         0.5369567701E+01      0.1261662916E+02
          0                 2           2             5    8     1      -0.5068360246E-01       5    8    1        -0.2799006593E+01      0.6707883933E+01
          0                 3           2             4    7     1       0.1788319469E-01       5    8    1         0.1000836526E+01      0.2442440953E+01
          0                 4           2             4    7     1      -0.7115906383E-03       5    8    1        -0.4093246368E-01      0.1002495101E+00
          0                 5           1             4    7     1       0.8774218648E-05       5    8    1         0.5186120809E-03      0.1327964747E-02

    ------------------------------------------------
       NWT REQUIRED            5 OUTER ITERATIONS 
       AND A TOTAL OF          9 INNER ITERATIONS.
    ------------------------------------------------

 NO OUTPUT CONTROL FOR STRESS PERIOD   33   TIME STEP    4
 
 SOLVING FOR HEAD 
                                                   Max.-Head-Change                         Max.-Flux-Residual
  Residual-Control   Outer-Iter.   Inner-Iter.     Column Row Layer    Maximum-Head-Change  Column Row Layer    Maximum-Flux-Residual          L2-NORM 
          0                 1           2             5    8     1       0.9507152616E-01       5    8    1         0.5170141840E+01      0.1226476385E+02
          0                 2           2             4    7     1      -0.1883843159E+00       5    8    1        -0.1029141503E+02      0.2504868182E+02
          0                 3           2             4    7     1       0.1282810992E-01       5    8    1         0.7203905843E+00      0.1753316102E+01
          0                 4           2             4    7     1      -0.5104432740E-03       5    8    1        -0.2946405665E-01      0.7170729801E-01
          0                 5           1             4    7     1       0.6293985481E-05       5    8    1         0.3734003456E-03      0.9087833779E-03

    ------------------------------------------------
       NWT REQUIRED            5 OUTER ITERATIONS 
       AND A TOTAL OF          9 INNER ITERATIONS.
    ------------------------------------------------

 NO OUTPUT CONTROL FOR STRESS PERIOD   33   TIME STEP    5
 
 SOLVING FOR HEAD 
                                                   Max.-Head-Change                         Max.-Flux-Residual
  Residual-Control   Outer-Iter.   Inner-Iter.     Column Row Layer    Maximum-Head-Change  Column Row Layer    Maximum-Flux-Residual          L2-NORM 
          0                 1           2             5    8     1       0.9618795678E-01       5    8    1         0.5230449883E+01      0.1241945779E+02
          0                 2           2             5    8     1      -0.4878893690E-01       5    8    1        -0.2694030393E+01      0.6473102947E+01
          0                 3           2             4    7     1       0.1943097119E-01       5    8    1         0.1084553047E+01      0.2650268225E+01
          0                 4           2             4    7     1      -0.7731784545E-03       5    8    1        -0.4435477185E-01      0.1088181278E+00
          0                 5           1             4    7     1       0.9533622332E-05       5    8    1         0.5618666544E-03      0.1447215158E-02

    ------------------------------------------------
       NWT REQUIRED            5 OUTER ITERATIONS 
       AND A TOTAL OF          9 INNER ITERATIONS.
    ------------------------------------------------

 NO OUTPUT CONTROL FOR STRESS PERIOD   33   TIME STEP    6
 
 SOLVING FOR HEAD 
                                                   Max.-Head-Change                         Max.-Flux-Residual
  Residual-Control   Outer-Iter.   Inner-Iter.     Column Row Layer    Maximum-Head-Change  Column Row Layer    Maximum-Flux-Residual          L2-NORM 
          0                 1           2             5    8     1       0.9269035230E-01       5    8    1         0.5036249183E+01      0.1207423383E+02
          0                 2           2             4    7     1      -0.1851204047E+00       5    8    1        -0.1009448186E+02      0.2458930145E+02
          0                 3           2             4    7     1       0.1260585257E-01       5    8    1         0.7066047226E+00      0.1721156884E+01
          0                 4           2             4    7     1      -0.5015994318E-03       5    8    1        -0.2890012314E-01      0.7039153121E-01
          0                 5           1             4    7     1       0.6184937246E-05       5    8    1         0.3662475031E-03      0.8920012656E-03

    ------------------------------------------------
       NWT REQUIRED            5 OUTER ITERATIONS 
       AND A TOTAL OF          9 INNER ITERATIONS.
    ------------------------------------------------

 NO OUTPUT CONTROL FOR STRESS PERIOD   33   TIME STEP    7
 
 SOLVING FOR HEAD 
                                                   Max.-Head-Change                         Max.-Flux-Residual
  Residual-Control   Outer-Iter.   Inner-Iter.     Column Row Layer    Maximum-Head-Change  Column Row Layer    Maximum-Flux-Residual          L2-NORM 
          0                 1           2             5    8     1       0.9388872721E-01       5    8    1         0.5101252361E+01      0.1223071148E+02
          0                 2           2             5    6     1      -0.4906015435E-01       5    8    1        -0.2707447096E+01      0.6526087967E+01
          0                 3           2             4    7     1       0.1899570813E-01       5    8    1         0.1059156024E+01      0.2589252881E+01
          0                 4           2             4    7     1      -0.7558588587E-03       5    8    1        -0.4331581569E-01      0.1062972968E+00
          0                 5           1             4    7     1       0.9320064367E-05       5    8    1         0.5486855143E-03      0.1411855248E-02

    ------------------------------------------------
       NWT REQUIRED            5 OUTER ITERATIONS 
       AND A TOTAL OF          9 INNER ITERATIONS.
    ------------------------------------------------

 NO OUTPUT CONTROL FOR STRESS PERIOD   33   TIME STEP    8
 
 SOLVING FOR HEAD 
                                                   Max.-Head-Change                         Max.-Flux-Residual
  Residual-Control   Outer-Iter.   Inner-Iter.     Column Row Layer    Maximum-Head-Change  Column Row Layer    Maximum-Flux-Residual          L2-NORM 
          0                 1           2             5    8     1       0.9059200907E-01       5    8    1         0.4918327197E+01      0.1190435705E+02
          0                 2           2             4    7     1      -0.1862567304E+00       5    8    1        -0.1013650861E+02      0.2471173529E+02
          0                 3           2             4    7     1       0.1268322698E-01       5    8    1         0.7095420091E+00      0.1729724389E+01
          0                 4           2             4    7     1      -0.5046782573E-03       5    8    1        -0.2901981867E-01      0.7074148378E-01
          0                 5           1             4    7     1       0.6222900754E-05       5    8    1         0.3677345605E-03      0.8963864332E-03

    ------------------------------------------------
       NWT REQUIRED            5 OUTER ITERATIONS 
       AND A TOTAL OF          9 INNER ITERATIONS.
    ------------------------------------------------

 NO OUTPUT CONTROL FOR STRESS PERIOD   33   TIME STEP    9
 
 SOLVING FOR HEAD 
                                                   Max.-Head-Change                         Max.-Flux-Residual
  Residual-Control   Outer-Iter.   Inner-Iter.     Column Row Layer    Maximum-Head-Change  Column Row Layer    Maximum-Flux-Residual          L2-NORM 
          0                 1           2             5    8     1       0.9197694144E-01       5    8    1         0.4993783948E+01      0.1207445503E+02
          0                 2           2             5    6     1      -0.4874680800E-01       5    8    1        -0.2688941869E+01      0.6497587234E+01
          0                 3           2             4    7     1       0.1913513554E-01       5    8    1         0.1065619047E+01      0.2606442234E+01
          0                 4           2             4    7     1      -0.7614068554E-03       5    8    1        -0.4357960116E-01      0.1070036365E+00
          0                 5           1             4    7     1       0.9388473508E-05       5    8    1         0.5519908857E-03      0.1421358903E-02

    ------------------------------------------------
       NWT REQUIRED            5 OUTER ITERATIONS 
       AND A TOTAL OF          9 INNER ITERATIONS.
    ------------------------------------------------

 NO OUTPUT CONTROL FOR STRESS PERIOD   33   TIME STEP   10
 
 SOLVING FOR HEAD 
                                                   Max.-Head-Change                         Max.-Flux-Residual
  Residual-Control   Outer-Iter.   Inner-Iter.     Column Row Layer    Maximum-Head-Change  Column Row Layer    Maximum-Flux-Residual          L2-NORM 
          0                 1           2             5    8     1       0.8881628533E-01       5    8    1         0.4818510960E+01      0.1176046267E+02
          0                 2           2             4    7     1      -0.1860816938E+00       5    8    1        -0.1011073531E+02      0.2466524511E+02
          0                 3           2             4    7     1       0.1267130535E-01       5    8    1         0.7077345341E+00      0.1726468228E+01
          0                 4           2             4    7     1      -0.5042038949E-03       5    8    1        -0.2894556212E-01      0.7060805254E-01
          0                 5           1             4    7     1       0.6217051339E-05       5    8    1         0.3667710498E-03      0.8946690766E-03

    ------------------------------------------------
       NWT REQUIRED            5 OUTER ITERATIONS 
       AND A TOTAL OF          9 INNER ITERATIONS.
    ------------------------------------------------

 NO OUTPUT CONTROL FOR STRESS PERIOD   33   TIME STEP   11
 
 SOLVING FOR HEAD 
                                                   Max.-Head-Change                         Max.-Flux-Residual
  Residual-Control   Outer-Iter.   Inner-Iter.     Column Row Layer    Maximum-Head-Change  Column Row Layer    Maximum-Flux-Residual          L2-NORM 
          0                 1           2             5    8     1       0.9032680563E-01       5    8    1         0.4901028070E+01      0.1193846668E+02
          0                 2           2             5    6     1      -0.4863815083E-01       5    8    1        -0.2681940054E+01      0.6494904178E+01
          0                 3           2             4    7     1       0.1910448254E-01       5    8    1         0.1062855365E+01      0.2600730764E+01
          0                 4           2             4    7     1      -0.7601871552E-03       5    8    1        -0.4346619276E-01      0.1067647238E+00
          0                 5           1             4    7     1       0.9373434060E-05       5    8    1         0.5505283170E-03      0.1418258018E-02

    ------------------------------------------------
       NWT REQUIRED            5 OUTER ITERATIONS 
       AND A TOTAL OF          9 INNER ITERATIONS.
    ------------------------------------------------

 NO OUTPUT CONTROL FOR STRESS PERIOD   33   TIME STEP   12
 
 SOLVING FOR HEAD 
                                                   Max.-Head-Change                         Max.-Flux-Residual
  Residual-Control   Outer-Iter.   Inner-Iter.     Column Row Layer    Maximum-Head-Change  Column Row Layer    Maximum-Flux-Residual          L2-NORM 
          0                 1           2             5    8     1       0.8729334263E-01       5    8    1         0.4732891961E+01      0.1163639754E+02
          0                 2           2             4    7     1      -0.1862742184E+00       5    8    1        -0.1010680751E+02      0.2466982939E+02
          0                 3           2             4    7     1       0.1268441283E-01       5    8    1         0.7074565181E+00      0.1726787654E+01
          0                 4           2             4    7     1      -0.5047254669E-03       5    8    1        -0.2893389152E-01      0.7062097602E-01
          0                 5           1             4    7     1       0.6223482447E-05       5    6    1         0.3666463651E-03      0.8949408430E-03

    ------------------------------------------------
       NWT REQUIRED            5 OUTER ITERATIONS 
       AND A TOTAL OF          9 INNER ITERATIONS.
    ------------------------------------------------

 NO OUTPUT CONTROL FOR STRESS PERIOD   33   TIME STEP   13
 
 SOLVING FOR HEAD 
                                                   Max.-Head-Change                         Max.-Flux-Residual
  Residual-Control   Outer-Iter.   Inner-Iter.     Column Row Layer    Maximum-Head-Change  Column Row Layer    Maximum-Flux-Residual          L2-NORM 
          0                 1           2             5    8     1       0.8892149887E-01       5    8    1         0.4822005669E+01      0.1182209177E+02
          0                 2           2             5    6     1      -0.4849707413E-01       5    8    1        -0.2673370437E+01      0.6486247643E+01
          0                 3           2             4    7     1       0.1912258642E-01       5    8    1         0.1062923068E+01      0.2601828024E+01
          0                 4           2             4    7     1      -0.7609075456E-03       5    8    1        -0.4346860334E-01      0.1068108314E+00
          0                 5           1             4    7     1       0.9382317172E-05       5    6    1         0.5505509175E-03      0.1419901739E-02

    ------------------------------------------------
       NWT REQUIRED            5 OUTER ITERATIONS 
       AND A TOTAL OF          9 INNER ITERATIONS.
    ------------------------------------------------

 NO OUTPUT CONTROL FOR STRESS PERIOD   33   TIME STEP   14
 
 SOLVING FOR HEAD 
                                                   Max.-Head-Change                         Max.-Flux-Residual
  Residual-Control   Outer-Iter.   Inner-Iter.     Column Row Layer    Maximum-Head-Change  Column Row Layer    Maximum-Flux-Residual          L2-NORM 
          0                 1           2             5    8     1       0.8599424709E-01       5    8    1         0.4659826501E+01      0.1153006785E+02
          0                 2           2             4    7     1      -0.1863435913E+00       5    8    1        -0.1009814025E+02      0.2466074619E+02
          0                 3           2             4    7     1       0.1268913465E-01       5    8    1         0.7068468699E+00      0.1726149898E+01
          0                 4           2             4    7     1      -0.5049133633E-03       5    8    1        -0.2890866940E-01      0.7059481705E-01
          0                 5           1             4    7     1       0.6225799250E-05       5    6    1         0.3663204466E-03      0.8945800774E-03

    ------------------------------------------------
       NWT REQUIRED            5 OUTER ITERATIONS 
       AND A TOTAL OF          9 INNER ITERATIONS.
    ------------------------------------------------

 NO OUTPUT CONTROL FOR STRESS PERIOD   33   TIME STEP   15
 
 SOLVING FOR HEAD 
                                                   Max.-Head-Change                         Max.-Flux-Residual
  Residual-Control   Outer-Iter.   Inner-Iter.     Column Row Layer    Maximum-Head-Change  Column Row Layer    Maximum-Flux-Residual          L2-NORM 
          0                 1           2             5    8     1       0.8772047017E-01       5    8    1         0.4754437431E+01      0.1172161952E+02
          0                 2           2             5    6     1      -0.4838942929E-01       5    8    1        -0.2666809773E+01      0.6479410721E+01
          0                 3           2             4    7     1       0.1912539327E-01       5    8    1         0.1062267844E+01      0.2600978513E+01
          0                 4           2             4    7     1      -0.7610192473E-03       5    8    1        -0.4344149906E-01      0.1067732295E+00
          0                 5           1             4    7     1       0.9383694171E-05       5    6    1         0.5502014280E-03      0.1419615237E-02

    ------------------------------------------------
       NWT REQUIRED            5 OUTER ITERATIONS 
       AND A TOTAL OF          9 INNER ITERATIONS.
    ------------------------------------------------

 NO OUTPUT CONTROL FOR STRESS PERIOD   33   TIME STEP   16
 
 SOLVING FOR HEAD 
                                                   Max.-Head-Change                         Max.-Flux-Residual
  Residual-Control   Outer-Iter.   Inner-Iter.     Column Row Layer    Maximum-Head-Change  Column Row Layer    Maximum-Flux-Residual          L2-NORM 
          0                 1           2             5    6     1       0.8491153112E-01       5    8    1         0.4597415418E+01      0.1143844834E+02
          0                 2           2             4    7     1      -0.1864355924E+00       5    8    1        -0.1009229890E+02      0.2465651181E+02
          0                 3           2             4    7     1       0.1269539753E-01       5    8    1         0.7064337141E+00      0.1725848461E+01
          0                 4           2             4    7     1      -0.5051625788E-03       5    8    1        -0.2889135656E-01      0.7058199803E-01
          0                 5           1             4    7     1       0.6228872377E-05       5    6    1         0.3660865289E-03      0.8943782949E-03

    ------------------------------------------------
       NWT REQUIRED            5 OUTER ITERATIONS 
       AND A TOTAL OF          9 INNER ITERATIONS.
    ------------------------------------------------

 NO OUTPUT CONTROL FOR STRESS PERIOD   33   TIME STEP   17
 
 SOLVING FOR HEAD 
                                                   Max.-Head-Change                         Max.-Flux-Residual
  Residual-Control   Outer-Iter.   Inner-Iter.     Column Row Layer    Maximum-Head-Change  Column Row Layer    Maximum-Flux-Residual          L2-NORM 
          0                 1           2             5    8     1       0.8669681793E-01       5    8    1         0.4696805309E+01      0.1163563414E+02
          0                 2           2             5    7     1      -0.4830053476E-01       5    8    1        -0.2660989506E+01      0.6474189581E+01
          0                 3           2             4    7     1       0.1913182269E-01       5    8    1         0.1061917886E+01      0.2600801035E+01
          0                 4           2             4    7     1      -0.7612750933E-03       5    8    1        -0.4342691338E-01      0.1067656036E+00
          0                 5           1             4    7     1       0.9386848620E-05       5    6    1         0.5500088123E-03      0.1419376953E-02

    ------------------------------------------------
       NWT REQUIRED            5 OUTER ITERATIONS 
       AND A TOTAL OF          9 INNER ITERATIONS.
    ------------------------------------------------

 NO OUTPUT CONTROL FOR STRESS PERIOD   33   TIME STEP   18
 
 SOLVING FOR HEAD 
                                                   Max.-Head-Change                         Max.-Flux-Residual
  Residual-Control   Outer-Iter.   Inner-Iter.     Column Row Layer    Maximum-Head-Change  Column Row Layer    Maximum-Flux-Residual          L2-NORM 
          0                 1           2             5    6     1       0.8399920431E-01       5    8    1         0.4544216108E+01      0.1136019912E+02
          0                 2           2             4    7     1      -0.1865090214E+00       5    8    1        -0.1008686182E+02      0.2465210737E+02
          0                 3           2             4    7     1       0.1270039598E-01       5    8    1         0.7060493542E+00      0.1725534830E+01
          0                 4           2             4    7     1      -0.5053614803E-03       5    8    1        -0.2887527000E-01      0.7056871868E-01
          0                 5           1             4    7     1       0.6231324830E-05       5    6    1         0.3658676005E-03      0.8941923524E-03

    ------------------------------------------------
       NWT REQUIRED            5 OUTER ITERATIONS 
       AND A TOTAL OF          9 INNER ITERATIONS.
    ------------------------------------------------

 NO OUTPUT CONTROL FOR STRESS PERIOD   33   TIME STEP   19
 
 SOLVING FOR HEAD 
                                                   Max.-Head-Change                         Max.-Flux-Residual
  Residual-Control   Outer-Iter.   Inner-Iter.     Column Row Layer    Maximum-Head-Change  Column Row Layer    Maximum-Flux-Residual          L2-NORM 
          0                 1           2             5    8     1       0.8582539277E-01       5    8    1         0.4647694070E+01      0.1156185715E+02
          0                 2           2             5    7     1      -0.4828701687E-01       5    8    1        -0.2656095225E+01      0.6469945918E+01
          0                 3           2             4    7     1       0.1913642824E-01       5    8    1         0.1061558598E+01      0.2600503551E+01
          0                 4           2             4    7     1      -0.7614583649E-03       5    8    1        -0.4341197785E-01      0.1067531499E+00
          0                 5           1             4    7     1       0.9389108408E-05       5    6    1         0.5498106693E-03      0.1419545264E-02

    ------------------------------------------------
       NWT REQUIRED            5 OUTER ITERATIONS 
       AND A TOTAL OF          9 INNER ITERATIONS.
    ------------------------------------------------

 NO OUTPUT CONTROL FOR STRESS PERIOD   33   TIME STEP   20
 
 SOLVING FOR HEAD 
                                                   Max.-Head-Change                         Max.-Flux-Residual
  Residual-Control   Outer-Iter.   Inner-Iter.     Column Row Layer    Maximum-Head-Change  Column Row Layer    Maximum-Flux-Residual          L2-NORM 
          0                 1           2             5    6     1       0.8321632291E-01       5    8    1         0.4498937667E+01      0.1129321927E+02
          0                 2           2             4    7     1      -0.1865773807E+00       5    8    1        -0.1008236845E+02      0.2464875011E+02
          0                 3           2             4    7     1       0.1270504938E-01       5    8    1         0.7057314687E+00      0.1725295208E+01
          0                 4           2             4    7     1      -0.5055466512E-03       5    6    1        -0.2886230114E-01      0.7055852430E-01
          0                 5           1             4    7     1       0.6233607916E-05       5    6    1         0.3656833735E-03      0.8940942953E-03

    ------------------------------------------------
       NWT REQUIRED            5 OUTER ITERATIONS 
       AND A TOTAL OF          9 INNER ITERATIONS.
    ------------------------------------------------

 NO OUTPUT CONTROL FOR STRESS PERIOD   33   TIME STEP   21
 
 SOLVING FOR HEAD 
                                                   Max.-Head-Change                         Max.-Flux-Residual
  Residual-Control   Outer-Iter.   Inner-Iter.     Column Row Layer    Maximum-Head-Change  Column Row Layer    Maximum-Flux-Residual          L2-NORM 
          0                 1           2             5    8     1       0.8508568856E-01       5    8    1         0.4605950625E+01      0.1149869256E+02
          0                 2           2             5    7     1      -0.4827494315E-01       5    8    1        -0.2651916017E+01      0.6466351200E+01
          0                 3           2             4    7     1       0.1914089250E-01       5    8    1         0.1061270941E+01      0.2600299420E+01
          0                 4           2             4    7     1      -0.7616360129E-03       5    8    1        -0.4339999823E-01      0.1067446958E+00
          0                 5           1             4    7     1       0.9391298970E-05       5    6    1         0.5496492172E-03      0.1421158428E-02

    ------------------------------------------------
       NWT REQUIRED            5 OUTER ITERATIONS 
       AND A TOTAL OF          9 INNER ITERATIONS.
    ------------------------------------------------

 NO OUTPUT CONTROL FOR STRESS PERIOD   33   TIME STEP   22
 
 SOLVING FOR HEAD 
                                                   Max.-Head-Change                         Max.-Flux-Residual
  Residual-Control   Outer-Iter.   Inner-Iter.     Column Row Layer    Maximum-Head-Change  Column Row Layer    Maximum-Flux-Residual          L2-NORM 
          0                 1           2             5    6     1       0.8254618668E-01       5    8    1         0.4460487482E+01      0.1123604373E+02
          0                 2           2             4    7     1      -0.1866379859E+00       5    8    1        -0.1007851403E+02      0.2464588305E+02
          0                 3           2             4    7     1       0.1270917495E-01       5    8    1         0.7054586676E+00      0.1725090521E+01
          0                 4           2             4    7     1      -0.5057108187E-03       5    6    1        -0.2885110307E-01      0.7054983609E-01
          0                 5           1             4    7     1       0.6235632360E-05       5    6    1         0.3655230321E-03      0.8939479128E-03

    ------------------------------------------------
       NWT REQUIRED            5 OUTER ITERATIONS 
       AND A TOTAL OF          9 INNER ITERATIONS.
    ------------------------------------------------

 NO OUTPUT CONTROL FOR STRESS PERIOD   33   TIME STEP   23
 
 SOLVING FOR HEAD 
                                                   Max.-Head-Change                         Max.-Flux-Residual
  Residual-Control   Outer-Iter.   Inner-Iter.     Column Row Layer    Maximum-Head-Change  Column Row Layer    Maximum-Flux-Residual          L2-NORM 
          0                 1           2             5    8     1       0.8445966127E-01       5    8    1         0.4570560989E+01      0.1144476437E+02
          0                 2           2             5    7     1      -0.4826487338E-01       5    8    1        -0.2648378617E+01      0.6463388240E+01
          0                 3           2             4    7     1       0.1914480784E-01       5    8    1         0.1061021892E+01      0.2600119798E+01
          0                 4           2             4    7     1      -0.7617918181E-03       5    8    1        -0.4338962039E-01      0.1067373512E+00
          0                 5           1             4    7     1       0.9393220136E-05       5    6    1         0.5495076211E-03      0.1419544355E-02

    ------------------------------------------------
       NWT REQUIRED            5 OUTER ITERATIONS 
       AND A TOTAL OF          9 INNER ITERATIONS.
    ------------------------------------------------

 NO OUTPUT CONTROL FOR STRESS PERIOD   33   TIME STEP   24
 
 SOLVING FOR HEAD 
                                                   Max.-Head-Change                         Max.-Flux-Residual
  Residual-Control   Outer-Iter.   Inner-Iter.     Column Row Layer    Maximum-Head-Change  Column Row Layer    Maximum-Flux-Residual          L2-NORM 
          0                 1           2             5    6     1       0.8197449912E-01       5    8    1         0.4427955073E+01      0.1118739699E+02
          0                 2           2             4    7     1      -0.1866927159E+00       5    8    1        -0.1007526282E+02      0.2464357205E+02
          0                 3           2             4    7     1       0.1271290060E-01       5    8    1         0.7052283980E+00      0.1724923892E+01
          0                 4           2             4    7     1      -0.5058590716E-03       5    6    1        -0.2884154420E-01      0.7054259166E-01
          0                 5           1             4    7     1       0.6237460443E-05       5    6    1         0.3653852623E-03      0.8938354964E-03

    ------------------------------------------------
       NWT REQUIRED            5 OUTER ITERATIONS 
       AND A TOTAL OF          9 INNER ITERATIONS.
    ------------------------------------------------

 NO OUTPUT CONTROL FOR STRESS PERIOD   33   TIME STEP   25
 
 SOLVING FOR HEAD 
                                                   Max.-Head-Change                         Max.-Flux-Residual
  Residual-Control   Outer-Iter.   Inner-Iter.     Column Row Layer    Maximum-Head-Change  Column Row Layer    Maximum-Flux-Residual          L2-NORM 
          0                 1           2             5    8     1       0.8393180747E-01       5    8    1         0.4540655389E+01      0.1139887544E+02
          0                 2           2             5    7     1      -0.4825662796E-01       5    8    1        -0.2645387944E+01      0.6460962143E+01
          0                 3           2             4    7     1       0.1914836359E-01       5    8    1         0.1060812902E+01      0.2599978505E+01
          0                 4           2             4    7     1      -0.7619333129E-03       5    8    1        -0.4338090040E-01      0.1067312920E+00
          0                 5           1             4    7     1       0.9394964879E-05       5    6    1         0.5493868912E-03      0.1419061290E-02

    ------------------------------------------------
       NWT REQUIRED            5 OUTER ITERATIONS 
       AND A TOTAL OF          9 INNER ITERATIONS.
    ------------------------------------------------

 NO OUTPUT CONTROL FOR STRESS PERIOD   33   TIME STEP   26
 
 SOLVING FOR HEAD 
                                                   Max.-Head-Change                         Max.-Flux-Residual
  Residual-Control   Outer-Iter.   Inner-Iter.     Column Row Layer    Maximum-Head-Change  Column Row Layer    Maximum-Flux-Residual          L2-NORM 
          0                 1           2             5    6     1       0.8148881260E-01       5    8    1         0.4400520550E+01      0.1114618110E+02
          0                 2           2             4    7     1      -0.1867420728E+00       5    8    1        -0.1007251948E+02      0.2464172237E+02
          0                 3           2             4    7     1       0.1271626049E-01       5    8    1         0.7050339441E+00      0.1724789413E+01
          0                 4           2             4    7     1      -0.5059927702E-03       5    6    1        -0.2883338242E-01      0.7053668955E-01
          0                 5           1             4    7     1       0.6239108629E-05       5    6    1         0.3652668345E-03      0.8937660092E-03

    ------------------------------------------------
       NWT REQUIRED            5 OUTER ITERATIONS 
       AND A TOTAL OF          9 INNER ITERATIONS.
    ------------------------------------------------

 NO OUTPUT CONTROL FOR STRESS PERIOD   33   TIME STEP   27
 
 SOLVING FOR HEAD 
                                                   Max.-Head-Change                         Max.-Flux-Residual
  Residual-Control   Outer-Iter.   Inner-Iter.     Column Row Layer    Maximum-Head-Change  Column Row Layer    Maximum-Flux-Residual          L2-NORM 
          0                 1           2             5    8     1       0.8348930134E-01       5    8    1         0.4515514172E+01      0.1136002656E+02
          0                 2           2             5    7     1      -0.4825019157E-01       5    8    1        -0.2642873939E+01      0.6459014573E+01
          0                 3           2             4    7     1       0.1915157317E-01       5    8    1         0.1060636921E+01      0.2599866981E+01
          0                 4           2             4    7     1      -0.7620610329E-03       5    8    1        -0.4337354730E-01      0.1067267172E+00
          0                 5           1             4    7     1       0.9396539696E-05       5    6    1         0.5492834096E-03      0.1418955740E-02

    ------------------------------------------------
       NWT REQUIRED            5 OUTER ITERATIONS 
       AND A TOTAL OF          9 INNER ITERATIONS.
    ------------------------------------------------

 NO OUTPUT CONTROL FOR STRESS PERIOD   33   TIME STEP   28
 
 SOLVING FOR HEAD 
                                                   Max.-Head-Change                         Max.-Flux-Residual
  Residual-Control   Outer-Iter.   Inner-Iter.     Column Row Layer    Maximum-Head-Change  Column Row Layer    Maximum-Flux-Residual          L2-NORM 
          0                 1           2             5    6     1       0.8107809453E-01       5    8    1         0.4377519038E+01      0.1111147423E+02
          0                 2           2             4    7     1      -0.1867867664E+00       5    8    1        -0.1007021944E+02      0.2464028499E+02
          0                 3           2             4    7     1       0.1271930296E-01       5    8    1         0.7048707502E+00      0.1724685705E+01
          0                 4           2             4    7     1      -0.5061138379E-03       5    6    1        -0.2882644295E-01      0.7053232291E-01
          0                 5           1             4    7     1       0.6240601787E-05       5    6    1         0.3651652887E-03      0.8937452432E-03

    ------------------------------------------------
       NWT REQUIRED            5 OUTER ITERATIONS 
       AND A TOTAL OF          9 INNER ITERATIONS.
    ------------------------------------------------

 NO OUTPUT CONTROL FOR STRESS PERIOD   33   TIME STEP   29
 
 SOLVING FOR HEAD 
                                                   Max.-Head-Change                         Max.-Flux-Residual
  Residual-Control   Outer-Iter.   Inner-Iter.     Column Row Layer    Maximum-Head-Change  Column Row Layer    Maximum-Flux-Residual          L2-NORM 
          0                 1           2             5    8     1       0.8312060202E-01       5    8    1         0.4494491146E+01      0.1132733513E+02
          0                 2           2             5    7     1      -0.4824547262E-01       5    8    1        -0.2640771747E+01      0.6457487662E+01
          0                 3           2             4    7     1       0.1915448415E-01       5    8    1         0.1060489766E+01      0.2599779227E+01
          0                 4           2             4    7     1      -0.7621768705E-03       5    8    1        -0.4336738775E-01      0.1067252308E+00
          0                 5           1             4    7     1       0.9397967997E-05       5    6    1         0.5491951581E-03      0.1420552410E-02

    ------------------------------------------------
       NWT REQUIRED            5 OUTER ITERATIONS 
       AND A TOTAL OF          9 INNER ITERATIONS.
    ------------------------------------------------

 NO OUTPUT CONTROL FOR STRESS PERIOD   33   TIME STEP   30



 STREAM LISTING     PERIOD     33   STEP       30

 LAYER ROW COL. STREAM  RCH.  FLOW INTO     FLOW TO   FLOW OUT OF   OVRLND.     DIRECT     STREAM       STREAM     STREAM     STREAM   STREAMBED  STREAMBED
                SEG.NO.  NO.  STRM. RCH.    AQUIFER    STRM. RCH.    RUNOFF     PRECIP       ET          HEAD       DEPTH      WIDTH   CONDCTNC.   GRADIENT

   1    1    1     1     1    2.2874E+01  2.3513E-01   2.2639E+01  0.000E+00  0.000E+00  0.000E+00  1.09419E+03  1.146E+00  1.260E+01  5.672E-02  1.382E+00
   1    2    2     1     2    2.2639E+01  3.6351E-01   2.2276E+01  0.000E+00  0.000E+00  0.000E+00  1.08920E+03  1.141E+00  1.254E+01  8.778E-02  1.380E+00
   1    3    3     1     3    2.2276E+01  3.0939E-01   2.1966E+01  0.000E+00  0.000E+00  0.000E+00  1.08355E+03  1.136E+00  1.247E+01  7.481E-02  1.379E+00
   1    3    4     1     4    2.1966E+01  2.8439E-01   2.1682E+01  0.000E+00  0.000E+00  0.000E+00  1.07854E+03  1.131E+00  1.240E+01  6.885E-02  1.377E+00
   1    4    5     2     1    1.9682E+01  3.1521E-01   1.9367E+01  0.000E+00  0.000E+00  0.000E+00  1.07298E+03  1.041E+00  1.200E+01  7.800E-02  1.347E+00
   1    5    6     2     2    1.9367E+01  2.4193E-01   1.9125E+01  0.000E+00  0.000E+00  0.000E+00  1.06754E+03  1.032E+00  1.200E+01  6.000E-02  1.344E+00
   1    6    6     2     3    1.9125E+01  2.4146E-01   1.8883E+01  0.000E+00  0.000E+00  0.000E+00  1.06282E+03  1.024E+00  1.200E+01  6.000E-02  1.341E+00
   1    7    6     2     4    1.8883E+01  2.4099E-01   1.8642E+01  0.000E+00  0.000E+00  0.000E+00  1.05809E+03  1.017E+00  1.200E+01  6.000E-02  1.339E+00
   1    8    6     2     5    1.8642E+01  2.4052E-01   1.8402E+01  0.000E+00  0.000E+00  0.000E+00  1.05337E+03  1.009E+00  1.200E+01  6.000E-02  1.336E+00
   1    3    5     3     1    2.0000E+00  2.8252E-01   1.7175E+00  0.000E+00  0.000E+00  0.000E+00  1.07555E+03  1.909E+00  9.636E+00  7.227E-02  1.955E+00
   1    3    6     3     2    1.7175E+00  2.4905E-01   1.4684E+00  0.000E+00  0.000E+00  0.000E+00  1.07264E+03  1.727E+00  8.909E+00  6.682E-02  1.864E+00
   1    3    7     3     3    1.4684E+00  1.9718E-01   1.2712E+00  0.000E+00  0.000E+00  0.000E+00  1.06987E+03  1.555E+00  8.218E+00  5.547E-02  1.777E+00
   1    4    8     3     4    1.2712E+00  2.2567E-01   1.0456E+00  0.000E+00  0.000E+00  0.000E+00  1.06682E+03  1.364E+00  7.455E+00  6.709E-02  1.682E+00
   1    5    8     3     5    1.0456E+00  1.5790E-01   8.8768E-01  0.000E+00  0.000E+00  0.000E+00  1.06362E+03  1.164E+00  6.655E+00  4.991E-02  1.582E+00
   1    6    8     3     6    8.8768E-01  5.5980E-02   8.3170E-01  0.000E+00  0.000E+00  0.000E+00  1.06158E+03  1.036E+00  6.145E+00  1.844E-02  1.518E+00
   1    5   10     4     1    1.0000E+01  9.0919E-02   9.9091E+00  0.000E+00  0.000E+00  0.000E+00  1.07836E+03  6.368E-01  1.000E+01  2.500E-02  1.212E+00
   1    5    9     4     2    9.9091E+00  1.8158E-01   9.7275E+00  0.000E+00  0.000E+00  0.000E+00  1.07154E+03  6.315E-01  1.000E+01  5.000E-02  1.211E+00
   1    6    8     4     3    9.7275E+00  1.2689E-01   9.6006E+00  0.000E+00  0.000E+00  0.000E+00  1.06381E+03  6.256E-01  1.000E+01  3.500E-02  1.209E+00
   1    6    8     5     1    1.0432E+01  2.2686E-01   1.0205E+01  0.000E+00  0.000E+00  0.000E+00  1.05868E+03  6.790E-01  1.542E+01  6.166E-02  1.226E+00
   1    7    7     5     2    1.0205E+01  2.7894E-01   9.9265E+00  0.000E+00  0.000E+00  0.000E+00  1.05417E+03  6.732E-01  1.519E+01  7.594E-02  1.224E+00
   1    8    7     5     3    9.9265E+00  1.9221E-01   9.7343E+00  0.000E+00  0.000E+00  0.000E+00  1.04992E+03  6.676E-01  1.497E+01  5.241E-02  1.223E+00
   1    8    6     5     4    9.7343E+00  1.3577E-01   9.5985E+00  0.000E+00  0.000E+00  0.000E+00  1.04691E+03  6.637E-01  1.482E+01  3.706E-02  1.221E+00
   1    9    6     6     1    9.5985E+00  2.2097E-01   9.3776E+00  0.000E+00  0.000E+00  0.000E+00  1.04341E+03  6.828E-01  1.200E+01  6.000E-02  1.228E+00
   1   10    7     6     2    9.3776E+00  2.2039E-01   9.1572E+00  0.000E+00  0.000E+00  0.000E+00  1.03885E+03  6.732E-01  1.200E+01  6.000E-02  1.224E+00
   1   11    7     6     3    9.1572E+00  2.1981E-01   8.9374E+00  0.000E+00  0.000E+00  0.000E+00  1.03430E+03  6.636E-01  1.200E+01  6.000E-02  1.221E+00
   1   12    7     6     4    8.9374E+00  2.1923E-01   8.7181E+00  0.000E+00  0.000E+00  0.000E+00  1.02974E+03  6.539E-01  1.200E+01  6.000E-02  1.218E+00
   1   13    7     6     5    8.7181E+00  1.6110E-04   8.7180E+00  0.000E+00  0.000E+00  0.000E+00  1.02656E+03  6.490E-01  1.200E+01  2.400E-02  2.237E-03
   1   14    9     7     1    1.5000E+02  1.3881E+00   1.4861E+02  0.000E+00  0.000E+00  0.000E+00  1.03987E+03  2.288E+00  5.529E+01  5.593E-01  8.273E-01
   1   13    8     7     2    1.4861E+02  2.0018E+00   1.4661E+02  0.000E+00  0.000E+00  0.000E+00  1.03478E+03  2.279E+00  5.525E+01  6.147E-01  1.085E+00
   1   13    7     7     3    1.4661E+02  1.7513E+00   1.4486E+02  0.000E+00  0.000E+00  0.000E+00  1.02969E+03  2.269E+00  5.521E+01  5.584E-01  1.046E+00
   1   13    6     8     1    1.5358E+02  1.1046E+00   1.5247E+02  0.000E+00  0.000E+00  0.000E+00  1.02471E+03  2.838E+00  4.115E+01  4.193E-01  8.780E-01
   1   13    5     8     2    1.5247E+02  3.5930E-01   1.5211E+02  0.000E+00  0.000E+00  0.000E+00  1.01846E+03  2.833E+00  4.108E+01  4.186E-01  2.861E-01
   1   13    4     8     3    1.5211E+02 -1.7842E+00   1.5390E+02  0.000E+00  0.000E+00  0.000E+00  1.01221E+03  2.838E+00  4.115E+01  4.193E+00 -1.418E-01
   1   13    3     8     4    1.5390E+02 -3.3207E+00   1.5722E+02  0.000E+00  0.000E+00  0.000E+00  1.00598E+03  2.856E+00  4.141E+01  4.219E+00 -2.623E-01
   1   13    2     8     5    1.5722E+02 -2.5042E+00   1.5972E+02  0.000E+00  0.000E+00  0.000E+00  9.99750E+02  2.875E+00  4.169E+01  4.249E+00 -1.965E-01
   1   13    1     8     6    1.5972E+02 -1.9712E+00   1.6169E+02  0.000E+00  0.000E+00  0.000E+00  9.94766E+02  2.891E+00  4.191E+01  2.563E+00 -2.564E-01
   1    8    6     9     1    1.8402E+01  0.0000E+00   1.8402E+01  0.000E+00  0.000E+00  0.000E+00  1.08202E+03  3.267E+00  4.000E+00  0.000E+00  2.089E+00
   1    8    5     9     2    1.8402E+01  0.0000E+00   1.8402E+01  0.000E+00  0.000E+00  0.000E+00  1.08152E+03  3.267E+00  4.000E+00  0.000E+00  2.089E+00





UNSATURATED ZONE PACKAGE VOLUMETRIC BUDGET FOR  TIME STEP    30 STRESS PERIOD   33
  ------------------------------------------------------------------------------



     CUMULATIVE VOLUMES      L**3       RATES FOR THIS TIME STEP      L**3/T
     ------------------                 ------------------------

           IN:                                      IN:
           ---                                      ---
        INFILTRATION =  1506675958.0182          INFILTRATION =          27.1438

          OUT:                                     OUT:
          ----                                     ----
              UZF ET =  1244310849.1987                UZF ET =          49.6308
        UZF RECHARGE =     1125167.5498          UZF RECHARGE =       0.0000E+00

            IN - OUT =   261239941.2698              IN - OUT =         -22.4870

          STORAGE:                                 STORAGE:
          --------                                 --------
      STORAGE CHANGE =   261241133.3159        STORAGE CHANGE =         -22.4870

 PERCENT DISCREPANCY IS DIFFERENCE BETWEEN IN-OUT MINUS CHANGE IN STORAGE
 DIVIDED BY THE AVERAGE OF IN AND OUT TIMES 100

 PERCENT DISCREPANCY =          -0.00     PERCENT DISCREPANCY =           0.00






1
  VOLUMETRIC BUDGET FOR AGRICULTURAL FIELDS AT  END OF TIME STEP   30, STRESS PERIOD  33
  ------------------------------------------------------------------------------

     CUMULATIVE VOLUMES      L**3       RATES FOR THIS TIME STEP      L**3/T
     ------------------                 ------------------------

           IN:                                      IN:
           ---                                      ---
               AG WELLS  =   952504448.0000                 AG WELLS  =           7.8942
      DIVERSION SEGMENTS =   482769056.0000        DIVERSION SEGMENTS =          18.4018
           GW IRRIGATION =           0.0000             GW IRRIGATION =           0.0000
           SW IRRIGATION =           0.0000             SW IRRIGATION =           0.0000
        SYSTEM LOSSES GW =           0.0000          SYSTEM LOSSES GW =           0.0000
        SYSTEM LOSSES SW =           0.0000          SYSTEM LOSSES SW =           0.0000

                TOTAL IN =  1435273472.0000                  TOTAL IN =          26.2959

          OUT:                                     OUT:
          ----                                     ----
               AG WELLS  =           0.0000                 AG WELLS  =           0.0000
      DIVERSION SEGMENTS =           0.0000        DIVERSION SEGMENTS =           0.0000
           GW IRRIGATION =   952504448.0000             GW IRRIGATION =           7.8942
           SW IRRIGATION =   482778048.0000             SW IRRIGATION =          18.4022
        SYSTEM LOSSES GW =           0.0000          SYSTEM LOSSES GW =           0.0000
        SYSTEM LOSSES SW =           0.0000          SYSTEM LOSSES SW =           0.0000

               TOTAL OUT =  1435282432.0000                 TOTAL OUT =          26.2963

                IN - OUT =       -8960.0000                  IN - OUT =      -3.6812E-04

     PERCENT DISCREPANCY =          -0.00         PERCENT DISCREPANCY =          -0.00



1
  VOLUMETRIC BUDGET FOR ENTIRE MODEL AT END OF TIME STEP   30, STRESS PERIOD  33
  ------------------------------------------------------------------------------

     CUMULATIVE VOLUMES      L**3       RATES FOR THIS TIME STEP      L**3/T
     ------------------                 ------------------------

           IN:                                      IN:
           ---                                      ---
             STORAGE     =  1324170112.0000               STORAGE     =          22.5491
       CONSTANT HEAD     =           0.0000         CONSTANT HEAD     =           0.0000
     HEAD DEP BOUNDS     =    24290106.0000       HEAD DEP BOUNDS     =           0.2893
      STREAM LEAKAGE     =  1002743488.0000        STREAM LEAKAGE     =          12.3596
        UZF RECHARGE     =     1125167.3750          UZF RECHARGE     =           0.0000
               GW ET     =           0.0000                 GW ET     =           0.0000
     SURFACE LEAKAGE     =           0.0000       SURFACE LEAKAGE     =           0.0000
           AG WELLS      =           0.0000             AG WELLS      =           0.0000

                TOTAL IN =  2352328704.0000                  TOTAL IN =          35.1981

          OUT:                                     OUT:
          ----                                     ----
             STORAGE     =   532760384.0000               STORAGE     =          17.4372
       CONSTANT HEAD     =           0.0000         CONSTANT HEAD     =           0.0000
     HEAD DEP BOUNDS     =    24265676.0000       HEAD DEP BOUNDS     =           0.2863
      STREAM LEAKAGE     =   842814016.0000        STREAM LEAKAGE     =           9.5803
        UZF RECHARGE     =           0.0000          UZF RECHARGE     =           0.0000
               GW ET     =           0.0000                 GW ET     =           0.0000
     SURFACE LEAKAGE     =           0.0000       SURFACE LEAKAGE     =           0.0000
           AG WELLS      =   952504448.0000             AG WELLS      =           7.8942

               TOTAL OUT =  2352344576.0000                 TOTAL OUT =          35.1980

                IN - OUT =      -15872.0000                  IN - OUT =       7.2479E-05

     PERCENT DISCREPANCY =          -0.00         PERCENT DISCREPANCY =           0.00






         TIME SUMMARY AT END OF TIME STEP   30 IN STRESS PERIOD   33
                    SECONDS     MINUTES      HOURS       DAYS        YEARS
                    -----------------------------------------------------------
   TIME STEP LENGTH  87667.      1461.1      24.352      1.0147     2.77799E-03
 STRESS PERIOD TIME 2.63000E+06  43833.      730.56      30.440     8.33397E-02
         TOTAL TIME 8.42463E+07 1.40410E+06  23402.      975.07      2.6696    
1
1
                            STRESS PERIOD NO.   34, LENGTH =   2630000.    
                            -----------------------------------------------

                              NUMBER OF TIME STEPS =    30

                               MULTIPLIER FOR DELT =     1.000

                            INITIAL TIME STEP SIZE =   87666.66    

 REUSING NON-PARAMETER GHB CELLS FROM LAST STRESS PERIOD

      2 GHB CELLS

 REUSING STREAM SEGMENT DATA FROM LAST STRESS PERIOD



            AREAL INFILTRATION RATE
 READING ON UNIT   19 WITH FORMAT: (FREE)              

            1           2           3           4           5           6           7           8           9          10
 ........................................................................................................................
   1   1.0000E-10  2.0000E-10   0.000       0.000       0.000       0.000       0.000       0.000       0.000       0.000    
   2   2.0000E-10  1.0000E-10  2.0000E-10   0.000       0.000      8.0000E-10  8.0000E-10  5.0000E-10   0.000       0.000    
   3    0.000      5.0000E-10  1.0000E-10  1.0000E-10  8.0000E-10  8.0000E-10  5.0000E-10  5.0000E-10   0.000       0.000    
   4   8.0000E-10  5.0000E-10  1.0000E-10  1.0000E-10  1.0000E-10  1.0000E-10  1.0000E-10  1.0000E-10  2.0000E-10   0.000    
   5   8.0000E-10  5.0000E-10  1.0000E-10  1.0000E-10  1.0000E-10  1.0000E-10  1.0000E-10  1.0000E-10  1.0000E-10  1.0000E-10
   6   8.0000E-10  5.0000E-10  5.0000E-10  2.0000E-10  2.0000E-10  1.0000E-10  1.0000E-10  1.0000E-10  1.0000E-10  5.0000E-10
   7   8.0000E-10  5.0000E-10  5.0000E-10  2.0000E-10  2.0000E-10  1.0000E-10  1.0000E-10  2.0000E-10  2.0000E-10   0.000    
   8    0.000      5.0000E-10  5.0000E-10  2.0000E-10  2.0000E-10  1.0000E-10  1.0000E-10  2.0000E-10  5.0000E-10   0.000    
   9    0.000      5.0000E-10  5.0000E-10  2.0000E-10  2.0000E-10  1.0000E-10  1.0000E-10  2.0000E-10  5.0000E-10   0.000    
  10    0.000      5.0000E-10  5.0000E-10  2.0000E-10  2.0000E-10  1.0000E-10  1.0000E-10  2.0000E-10  5.0000E-10  8.0000E-10
  11    0.000      1.0000E-10  1.0000E-10  1.0000E-10  1.0000E-10  1.0000E-10  1.0000E-10  2.0000E-10  5.0000E-10   0.000    
  12   1.0000E-10  1.0000E-10  1.0000E-10  1.0000E-10  1.0000E-10  1.0000E-10  1.0000E-10  1.0000E-10  2.0000E-10   0.000    
  13   1.0000E-10  1.0000E-10  2.0000E-10  2.0000E-10  2.0000E-10  2.0000E-10  2.0000E-10  1.0000E-10  1.0000E-10   0.000    
  14    0.000      2.0000E-10  5.0000E-10  5.0000E-10  5.0000E-10  5.0000E-10  5.0000E-10  2.0000E-10  1.0000E-10   0.000    
  15    0.000       0.000      8.0000E-10  8.0000E-10  8.0000E-10  8.0000E-10   0.000       0.000       0.000       0.000    

                  ET RATE =  7.500000E-08

 USING ET EXTINCTION DEPTH FROM PREVIOUS STRESS PERIOD. CURRENT PERIOD IS:      34

 USING EXTINCTION WATER CONTENT FROM PREVIOUS STRESS PERIOD. CURRENT PERIOD IS:      34

 USING AIR ENTRY PRESSURE FROM PREVIOUS STRESS PERIOD. CURRENT PERIOD IS:      34

 USING ROOT PRESSURE HEAD FROM PREVIOUS STRESS PERIOD. CURRENT PERIOD IS:      34

 USING ROOT ACTIVITY FROM PREVIOUS STRESS PERIOD. CURRENT PERIOD IS:      34

 PROCESSING AG STRESS PERIOD DATA

 READING AG STRESS PERIOD DATA

 READING IRRIGATION SEGMENT

 READING IRRIGATION WELL

 READING SUPPLEMENTAL WELL

 END PROCESSING AG STRESS PERIOD DATA OPTIONS
 
 SOLVING FOR HEAD 
                                                   Max.-Head-Change                         Max.-Flux-Residual
  Residual-Control   Outer-Iter.   Inner-Iter.     Column Row Layer    Maximum-Head-Change  Column Row Layer    Maximum-Flux-Residual          L2-NORM 
          0                 1           2             5    6     1       0.8073321715E-01       5    8    1         0.4358359901E+01      0.1108246391E+02
          0                 2           2             5    6     1      -0.9667319892E-02       5    8    1        -0.5355492741E+00      0.1339201198E+01
          0                 3           2             5    7     1       0.2380895891E-02       5    8    1         0.1339294575E+00      0.3270533003E+00
          0                 4           2             5    7     1      -0.1099337415E-03       5    8    1        -0.6348208912E-02      0.1548563819E-01
          0                 5           1             4    7     1      -0.1940183857E-04       4    7    1        -0.1100101457E-02      0.2887725735E-02

    ------------------------------------------------
       NWT REQUIRED            5 OUTER ITERATIONS 
       AND A TOTAL OF          9 INNER ITERATIONS.
    ------------------------------------------------

 NO OUTPUT CONTROL FOR STRESS PERIOD   34   TIME STEP    1
 
 SOLVING FOR HEAD 
                                                   Max.-Head-Change                         Max.-Flux-Residual
  Residual-Control   Outer-Iter.   Inner-Iter.     Column Row Layer    Maximum-Head-Change  Column Row Layer    Maximum-Flux-Residual          L2-NORM 
          0                 1           2             5    6     1       0.7785721683E-01       5    6    1         0.4195898569E+01      0.1077448165E+02
          0                 2           2             4    7     1      -0.4214085634E-01       5    6    1        -0.2289584685E+01      0.5620478818E+01
          0                 3           2             4    7     1       0.2079451650E-01       5    6    1         0.1149067794E+01      0.2820485974E+01
          0                 4           2             4    7     1      -0.8274356985E-03       5    6    1        -0.4698955925E-01      0.1158759217E+00
          0                 5           1             4    7     1       0.1020263721E-04       5    7    1         0.5950626883E-03      0.1557527971E-02

    ------------------------------------------------
       NWT REQUIRED            5 OUTER ITERATIONS 
       AND A TOTAL OF          9 INNER ITERATIONS.
    ------------------------------------------------

 NO OUTPUT CONTROL FOR STRESS PERIOD   34   TIME STEP    2
 
 SOLVING FOR HEAD 
                                                   Max.-Head-Change                         Max.-Flux-Residual
  Residual-Control   Outer-Iter.   Inner-Iter.     Column Row Layer    Maximum-Head-Change  Column Row Layer    Maximum-Flux-Residual          L2-NORM 
          0                 1           2             5    7     1       0.7650664260E-01       5    6    1         0.4070910132E+01      0.1053067102E+02
          0                 2           2             5    7     1      -0.7441981176E-02       5    6    1        -0.4070861282E+00      0.1052998646E+01
          0                 3           2             5    7     1       0.5067716118E-03       5    6    1         0.2849608751E-01      0.7370478591E-01
          0                 4           1             5    7     1      -0.2016492133E-04       5    6    1        -0.1165491380E-02      0.3014198128E-02

    ------------------------------------------------
       NWT REQUIRED            4 OUTER ITERATIONS 
       AND A TOTAL OF          7 INNER ITERATIONS.
    ------------------------------------------------

 NO OUTPUT CONTROL FOR STRESS PERIOD   34   TIME STEP    3
 
 SOLVING FOR HEAD 
                                                   Max.-Head-Change                         Max.-Flux-Residual
  Residual-Control   Outer-Iter.   Inner-Iter.     Column Row Layer    Maximum-Head-Change  Column Row Layer    Maximum-Flux-Residual          L2-NORM 
          0                 1           2             5    7     1       0.7502541574E-01       5    7    1         0.3976057983E+01      0.1025278333E+02
          0                 2           2             4    7     1      -0.4206687443E-01       5    7    1        -0.2267604430E+01      0.5573507722E+01
          0                 3           2             4    7     1       0.9339206995E-02       5    7    1         0.5158935510E+00      0.1264032589E+01
          0                 4           2             4    7     1      -0.3716162658E-03       5    7    1        -0.2110010351E-01      0.5177664335E-01
          0                 5           1             4    7     1       0.4582188762E-05       5    7    1         0.2674032999E-03      0.6694979697E-03

    ------------------------------------------------
       NWT REQUIRED            5 OUTER ITERATIONS 
       AND A TOTAL OF          9 INNER ITERATIONS.
    ------------------------------------------------

 NO OUTPUT CONTROL FOR STRESS PERIOD   34   TIME STEP    4
 
 SOLVING FOR HEAD 
                                                   Max.-Head-Change                         Max.-Flux-Residual
  Residual-Control   Outer-Iter.   Inner-Iter.     Column Row Layer    Maximum-Head-Change  Column Row Layer    Maximum-Flux-Residual          L2-NORM 
          0                 1           2             5    7     1       0.7398936035E-01       5    7    1         0.3921091729E+01      0.1006923774E+02
          0                 2           2             5    7     1      -0.7197130920E-02       5    7    1        -0.3921081222E+00      0.1006862357E+01
          0                 3           2             5    7     1       0.4900980931E-03       5    7    1         0.2744759035E-01      0.7047557060E-01
          0                 4           1             5    7     1      -0.1950146733E-04       5    7    1        -0.1122607960E-02      0.2882123368E-02

    ------------------------------------------------
       NWT REQUIRED            4 OUTER ITERATIONS 
       AND A TOTAL OF          7 INNER ITERATIONS.
    ------------------------------------------------

 NO OUTPUT CONTROL FOR STRESS PERIOD   34   TIME STEP    5
 
 SOLVING FOR HEAD 
                                                   Max.-Head-Change                         Max.-Flux-Residual
  Residual-Control   Outer-Iter.   Inner-Iter.     Column Row Layer    Maximum-Head-Change  Column Row Layer    Maximum-Flux-Residual          L2-NORM 
          0                 1           2             4    7     1       0.7337966143E-01       5    7    1         0.3845239901E+01      0.9813893859E+01
          0                 2           2             4    7     1      -0.4198484047E-01       5    7    1        -0.2254523362E+01      0.5534538329E+01
          0                 3           2             4    7     1       0.9333618024E-02       5    7    1         0.5149778465E+00      0.1261392426E+01
          0                 4           2             4    7     1      -0.3713938863E-03       5    7    1        -0.2106239042E-01      0.5166808309E-01
          0                 5           1             4    7     1       0.4579446638E-05       5    7    1         0.2669076198E-03      0.6685638451E-03

    ------------------------------------------------
       NWT REQUIRED            5 OUTER ITERATIONS 
       AND A TOTAL OF          9 INNER ITERATIONS.
    ------------------------------------------------

 NO OUTPUT CONTROL FOR STRESS PERIOD   34   TIME STEP    6
 
 SOLVING FOR HEAD 
                                                   Max.-Head-Change                         Max.-Flux-Residual
  Residual-Control   Outer-Iter.   Inner-Iter.     Column Row Layer    Maximum-Head-Change  Column Row Layer    Maximum-Flux-Residual          L2-NORM 
          0                 1           2             4    7     1       0.7298422760E-01       4    7    1         0.3819611328E+01      0.9649812893E+01
          0                 2           2             4    7     1      -0.7099387858E-02       4    7    1        -0.3819620643E+00      0.9649257211E+00
          0                 3           2             4    7     1       0.4834418698E-03       4    7    1         0.2673734724E-01      0.6754045235E-01
          0                 4           1             4    7     1      -0.1923660455E-04       4    7    1        -0.1093559059E-02      0.2762189525E-02

    ------------------------------------------------
       NWT REQUIRED            4 OUTER ITERATIONS 
       AND A TOTAL OF          7 INNER ITERATIONS.
    ------------------------------------------------

 NO OUTPUT CONTROL FOR STRESS PERIOD   34   TIME STEP    7
 
 SOLVING FOR HEAD 
                                                   Max.-Head-Change                         Max.-Flux-Residual
  Residual-Control   Outer-Iter.   Inner-Iter.     Column Row Layer    Maximum-Head-Change  Column Row Layer    Maximum-Flux-Residual          L2-NORM 
          0                 1           2             4    7     1       0.7242113846E-01       4    7    1         0.3792041188E+01      0.9414145342E+01
          0                 2           2             4    7     1      -0.4189159060E-01       4    7    1        -0.2249205464E+01      0.5498565631E+01
          0                 3           2             4    7     1       0.9327263403E-02       4    7    1         0.5146054672E+00      0.1258944618E+01
          0                 4           2             4    7     1      -0.3711410391E-03       4    7    1        -0.2104742424E-01      0.5156719250E-01
          0                 5           1             4    7     1       0.4576329153E-05       4    7    1         0.2667356880E-03      0.6674814922E-03

    ------------------------------------------------
       NWT REQUIRED            5 OUTER ITERATIONS 
       AND A TOTAL OF          9 INNER ITERATIONS.
    ------------------------------------------------

 NO OUTPUT CONTROL FOR STRESS PERIOD   34   TIME STEP    8
 
 SOLVING FOR HEAD 
                                                   Max.-Head-Change                         Max.-Flux-Residual
  Residual-Control   Outer-Iter.   Inner-Iter.     Column Row Layer    Maximum-Head-Change  Column Row Layer    Maximum-Flux-Residual          L2-NORM 
          0                 1           2             4    7     1       0.7197615726E-01       4    7    1         0.3769813014E+01      0.9266955833E+01
          0                 2           2             4    7     1      -0.7001339687E-02       4    7    1        -0.3769828708E+00      0.9266446714E+00
          0                 3           2             4    7     1       0.4767650594E-03       4    7    1         0.2638879751E-01      0.6486099008E-01
          0                 4           1             4    7     1      -0.1897092861E-04       4    7    1        -0.1079303395E-02      0.2652536092E-02

    ------------------------------------------------
       NWT REQUIRED            4 OUTER ITERATIONS 
       AND A TOTAL OF          7 INNER ITERATIONS.
    ------------------------------------------------

 NO OUTPUT CONTROL FOR STRESS PERIOD   34   TIME STEP    9
 
 SOLVING FOR HEAD 
                                                   Max.-Head-Change                         Max.-Flux-Residual
  Residual-Control   Outer-Iter.   Inner-Iter.     Column Row Layer    Maximum-Head-Change  Column Row Layer    Maximum-Flux-Residual          L2-NORM 
          0                 1           2             4    7     1       0.7136830835E-01       4    7    1         0.3739659299E+01      0.9048538618E+01
          0                 2           2             4    7     1      -0.4178915592E-01       4    7    1        -0.2243967838E+01      0.5465274928E+01
          0                 3           2             4    7     1       0.9320281725E-02       4    7    1         0.5142388013E+00      0.1256670411E+01
          0                 4           2             4    7     1      -0.3708632390E-03       4    7    1        -0.2103242805E-01      0.5147394716E-01
          0                 5           1             4    7     1       0.4572903740E-05       4    7    1         0.2665456441E-03      0.6664292527E-03

    ------------------------------------------------
       NWT REQUIRED            5 OUTER ITERATIONS 
       AND A TOTAL OF          9 INNER ITERATIONS.
    ------------------------------------------------

 NO OUTPUT CONTROL FOR STRESS PERIOD   34   TIME STEP   10
 
 SOLVING FOR HEAD 
                                                   Max.-Head-Change                         Max.-Flux-Residual
  Residual-Control   Outer-Iter.   Inner-Iter.     Column Row Layer    Maximum-Head-Change  Column Row Layer    Maximum-Flux-Residual          L2-NORM 
          0                 1           2             4    7     1       0.7088334221E-01       4    7    1         0.3715110926E+01      0.8916073682E+01
          0                 2           2             4    7     1      -0.6895046145E-02       4    7    1        -0.3715131653E+00      0.8915605635E+00
          0                 3           2             4    7     1       0.4695267891E-03       4    7    1         0.2600591319E-01      0.6240542260E-01
          0                 4           1             4    7     1      -0.1868291113E-04       4    7    1        -0.1063643427E-02      0.2552126085E-02

    ------------------------------------------------
       NWT REQUIRED            4 OUTER ITERATIONS 
       AND A TOTAL OF          7 INNER ITERATIONS.
    ------------------------------------------------

 NO OUTPUT CONTROL FOR STRESS PERIOD   34   TIME STEP   11
 
 SOLVING FOR HEAD 
                                                   Max.-Head-Change                         Max.-Flux-Residual
  Residual-Control   Outer-Iter.   Inner-Iter.     Column Row Layer    Maximum-Head-Change  Column Row Layer    Maximum-Flux-Residual          L2-NORM 
          0                 1           2             4    7     1       0.7024175388E-01       4    7    1         0.3682883470E+01      0.8801891449E+01
          0                 2           2             4    7     1      -0.4166588953E-01       4    7    1        -0.2238290681E+01      0.4988056801E+01
          0                 3           2             4    7     1       0.9310384142E-02       4    7    1         0.5138413008E+00      0.1158738759E+01
          0                 4           2             5    8     1       0.1498543513E-02       5    8    1         0.8801115006E-01      0.9975874339E-01
          0                 5           1             5    8     1       0.7071205879E-03       5    8    1         0.4122153833E-01      0.4122660018E-01
          0                 6           1             5    8     1       0.3336667717E-03       5    8    1         0.1945405236E-01      0.1945414393E-01
          0                 7           1             5    8     1       0.1574445992E-03       5    8    1         0.9179582964E-02      0.9179619592E-02
          0                 8           1             5    8     1       0.7429129138E-04       5    8    1         0.4331407032E-02      0.4331424249E-02

    ------------------------------------------------
       NWT REQUIRED            8 OUTER ITERATIONS 
       AND A TOTAL OF         12 INNER ITERATIONS.
    ------------------------------------------------

 NO OUTPUT CONTROL FOR STRESS PERIOD   34   TIME STEP   12
 
 SOLVING FOR HEAD 
                                                   Max.-Head-Change                         Max.-Flux-Residual
  Residual-Control   Outer-Iter.   Inner-Iter.     Column Row Layer    Maximum-Head-Change  Column Row Layer    Maximum-Flux-Residual          L2-NORM 
          0                 1           2             5    8     1       0.1569681930E+00       5    8    1         0.8570403543E+01      0.1175618754E+02
          0                 2           2             5    8     1       0.1246514292E-01       5    8    1         0.6968832497E+00      0.1064469016E+01
          0                 3           2             5    8     1       0.9899307865E-03       5    8    1         0.5396954777E-01      0.7817182747E-01
          0                 4           1             5    8     1       0.7861739862E-04       5    8    1         0.4361884180E-02      0.4920660608E-02

    ------------------------------------------------
       NWT REQUIRED            4 OUTER ITERATIONS 
       AND A TOTAL OF          7 INNER ITERATIONS.
    ------------------------------------------------

 NO OUTPUT CONTROL FOR STRESS PERIOD   34   TIME STEP   13
 
 SOLVING FOR HEAD 
                                                   Max.-Head-Change                         Max.-Flux-Residual
  Residual-Control   Outer-Iter.   Inner-Iter.     Column Row Layer    Maximum-Head-Change  Column Row Layer    Maximum-Flux-Residual          L2-NORM 
          0                 1           2             5    8     1       0.1885866895E+00       5    8    1         0.1030984044E+02      0.1302487972E+02
          0                 2           2             4    7     1      -0.4155354364E-01       4    7    1        -0.2232698006E+01      0.5099414149E+01
          0                 3           2             4    7     1       0.9305631564E-02       4    7    1         0.5134497664E+00      0.1227404115E+01
          0                 4           2             5    8     1       0.6556934985E-03       5    8    1         0.3679695416E-01      0.5937392458E-01
          0                 5           1             5    8     1       0.5207005361E-04       5    8    1         0.2864093795E-02      0.2936574519E-02

    ------------------------------------------------
       NWT REQUIRED            5 OUTER ITERATIONS 
       AND A TOTAL OF          9 INNER ITERATIONS.
    ------------------------------------------------

 NO OUTPUT CONTROL FOR STRESS PERIOD   34   TIME STEP   14
 
 SOLVING FOR HEAD 
                                                   Max.-Head-Change                         Max.-Flux-Residual
  Residual-Control   Outer-Iter.   Inner-Iter.     Column Row Layer    Maximum-Head-Change  Column Row Layer    Maximum-Flux-Residual          L2-NORM 
          0                 1           2             4    7     1       0.6887099056E-01       5    7    1         0.3614269314E+01      0.8181261359E+01
          0                 2           2             4    7     1      -0.6696896005E-02       5    7    1        -0.3614304958E+00      0.8147271057E+00
          0                 3           2             4    7     1       0.4562188814E-03       5    7    1         0.2536453007E-01      0.5706263738E-01
          0                 4           1             4    7     1      -0.1813905733E-04       4    7    1        -0.1032660182E-02      0.2471074225E-02

    ------------------------------------------------
       NWT REQUIRED            4 OUTER ITERATIONS 
       AND A TOTAL OF          7 INNER ITERATIONS.
    ------------------------------------------------

 NO OUTPUT CONTROL FOR STRESS PERIOD   34   TIME STEP   15
 
 SOLVING FOR HEAD 
                                                   Max.-Head-Change                         Max.-Flux-Residual
  Residual-Control   Outer-Iter.   Inner-Iter.     Column Row Layer    Maximum-Head-Change  Column Row Layer    Maximum-Flux-Residual          L2-NORM 
          0                 1           2             4    7     1       0.6828957511E-01       4    7    1         0.3578462993E+01      0.8006935281E+01
          0                 2           2             4    7     1      -0.4148722223E-01       4    7    1        -0.2227848376E+01      0.5241764120E+01
          0                 3           2             4    7     1       0.9297491884E-02       4    7    1         0.5131104175E+00      0.1156630467E+01
          0                 4           2             5    8     1       0.4013687544E-03       5    8    1         0.2404327441E-01      0.5270504898E-01
          0                 5           1             5    8     1       0.5172278827E-04       5    8    1         0.3007860480E-02      0.3070827862E-02

    ------------------------------------------------
       NWT REQUIRED            5 OUTER ITERATIONS 
       AND A TOTAL OF          9 INNER ITERATIONS.
    ------------------------------------------------

 NO OUTPUT CONTROL FOR STRESS PERIOD   34   TIME STEP   16
 
 SOLVING FOR HEAD 
                                                   Max.-Head-Change                         Max.-Flux-Residual
  Residual-Control   Outer-Iter.   Inner-Iter.     Column Row Layer    Maximum-Head-Change  Column Row Layer    Maximum-Flux-Residual          L2-NORM 
          0                 1           2             4    7     1       0.6782159823E-01       4    7    1         0.3555180936E+01      0.7907206194E+01
          0                 2           2             4    7     1      -0.6594810053E-02       4    7    1        -0.3555203776E+00      0.7869400558E+00
          0                 3           2             4    7     1       0.4492684409E-03       4    7    1         0.2488641363E-01      0.5513083378E-01
          0                 4           1             4    7     1      -0.1786239177E-04       4    7    1        -0.1017855827E-02      0.2398077560E-02

    ------------------------------------------------
       NWT REQUIRED            4 OUTER ITERATIONS 
       AND A TOTAL OF          7 INNER ITERATIONS.
    ------------------------------------------------

 NO OUTPUT CONTROL FOR STRESS PERIOD   34   TIME STEP   17
 
 SOLVING FOR HEAD 
                                                   Max.-Head-Change                         Max.-Flux-Residual
  Residual-Control   Outer-Iter.   Inner-Iter.     Column Row Layer    Maximum-Head-Change  Column Row Layer    Maximum-Flux-Residual          L2-NORM 
          0                 1           2             4    7     1       0.6719336876E-01       4    7    1         0.3523946515E+01      0.7743878272E+01
          0                 2           2             4    7     1      -0.4138054318E-01       4    7    1        -0.2222397213E+01      0.5217532562E+01
          0                 3           2             4    7     1       0.9290219116E-02       4    7    1         0.5127288049E+00      0.1154896257E+01
          0                 4           2             5    8     1       0.4015095813E-03       5    8    1         0.2405041434E-01      0.5264389073E-01
          0                 5           1             5    8     1       0.5174096702E-04       5    8    1         0.3008925070E-02      0.3071704313E-02

    ------------------------------------------------
       NWT REQUIRED            5 OUTER ITERATIONS 
       AND A TOTAL OF          9 INNER ITERATIONS.
    ------------------------------------------------

 NO OUTPUT CONTROL FOR STRESS PERIOD   34   TIME STEP   18
 
 SOLVING FOR HEAD 
                                                   Max.-Head-Change                         Max.-Flux-Residual
  Residual-Control   Outer-Iter.   Inner-Iter.     Column Row Layer    Maximum-Head-Change  Column Row Layer    Maximum-Flux-Residual          L2-NORM 
          0                 1           2             4    7     1       0.6668489814E-01       4    7    1         0.3498223518E+01      0.7653943132E+01
          0                 2           2             4    7     1      -0.6484241556E-02       4    7    1        -0.3498250497E+00      0.7613001801E+00
          0                 3           2             4    7     1       0.4417394314E-03       4    7    1         0.2448773672E-01      0.5334783030E-01
          0                 4           1             4    7     1      -0.1756277841E-04       4    7    1        -0.1001549941E-02      0.2329779764E-02

    ------------------------------------------------
       NWT REQUIRED            4 OUTER ITERATIONS 
       AND A TOTAL OF          7 INNER ITERATIONS.
    ------------------------------------------------

 NO OUTPUT CONTROL FOR STRESS PERIOD   34   TIME STEP   19
 
 SOLVING FOR HEAD 
                                                   Max.-Head-Change                         Max.-Flux-Residual
  Residual-Control   Outer-Iter.   Inner-Iter.     Column Row Layer    Maximum-Head-Change  Column Row Layer    Maximum-Flux-Residual          L2-NORM 
          0                 1           2             4    7     1       0.6602211477E-01       4    7    1         0.3464888036E+01      0.7500212899E+01
          0                 2           2             4    7     1      -0.4126656591E-01       4    7    1        -0.2216491710E+01      0.5195239202E+01
          0                 3           2             4    7     1       0.9282447351E-02       4    7    1         0.5123153957E+00      0.1153271271E+01
          0                 4           2             5    8     1       0.4014976888E-03       5    8    1         0.2404884058E-01      0.5258406622E-01
          0                 5           1             5    8     1       0.5173944423E-04       5    8    1         0.3008835525E-02      0.3071484814E-02

    ------------------------------------------------
       NWT REQUIRED            5 OUTER ITERATIONS 
       AND A TOTAL OF          9 INNER ITERATIONS.
    ------------------------------------------------

 NO OUTPUT CONTROL FOR STRESS PERIOD   34   TIME STEP   20
 
 SOLVING FOR HEAD 
                                                   Max.-Head-Change                         Max.-Flux-Residual
  Residual-Control   Outer-Iter.   Inner-Iter.     Column Row Layer    Maximum-Head-Change  Column Row Layer    Maximum-Flux-Residual          L2-NORM 
          0                 1           2             4    7     1       0.6548452860E-01       4    7    1         0.3437374640E+01      0.7418779153E+01
          0                 2           2             4    7     1      -0.6367487511E-02       4    7    1        -0.3437404519E+00      0.7375285577E+00
          0                 3           2             4    7     1       0.4337884880E-03       4    7    1         0.2406181207E-01      0.5169270216E-01
          0                 4           1             4    7     1      -0.1724643286E-04       4    7    1        -0.9841296085E-03      0.2265545847E-02

    ------------------------------------------------
       NWT REQUIRED            4 OUTER ITERATIONS 
       AND A TOTAL OF          7 INNER ITERATIONS.
    ------------------------------------------------

 NO OUTPUT CONTROL FOR STRESS PERIOD   34   TIME STEP   21
 
 SOLVING FOR HEAD 
                                                   Max.-Head-Change                         Max.-Flux-Residual
  Residual-Control   Outer-Iter.   Inner-Iter.     Column Row Layer    Maximum-Head-Change  Column Row Layer    Maximum-Flux-Residual          L2-NORM 
          0                 1           2             4    7     1       0.6479750289E-01       4    7    1         0.3402527789E+01      0.7273521096E+01
          0                 2           2             4    7     1      -0.4114739971E-01       4    7    1        -0.2210255922E+01      0.5174648604E+01
          0                 3           2             4    7     1       0.9274320686E-02       4    7    1         0.5118788724E+00      0.1151745065E+01
          0                 4           2             5    8     1       0.4013689569E-03       5    8    1         0.2403846820E-01      0.5252351886E-01
          0                 5           1             5    8     1       0.5172284661E-04       5    8    1         0.3007841427E-02      0.3070353027E-02

    ------------------------------------------------
       NWT REQUIRED            5 OUTER ITERATIONS 
       AND A TOTAL OF          9 INNER ITERATIONS.
    ------------------------------------------------

 NO OUTPUT CONTROL FOR STRESS PERIOD   34   TIME STEP   22
 
 SOLVING FOR HEAD 
                                                   Max.-Head-Change                         Max.-Flux-Residual
  Residual-Control   Outer-Iter.   Inner-Iter.     Column Row Layer    Maximum-Head-Change  Column Row Layer    Maximum-Flux-Residual          L2-NORM 
          0                 1           2             4    7     1       0.6423989194E-01       4    7    1         0.3373744481E+01      0.7199554579E+01
          0                 2           2             4    7     1      -0.6246433366E-02       4    7    1        -0.3373776300E+00      0.7154030824E+00
          0                 3           2             4    7     1       0.4255441750E-03       4    7    1         0.2361641261E-01      0.5015165556E-01
          0                 4           1             4    7     1      -0.1691845747E-04       4    7    1        -0.9659127629E-03      0.2205079371E-02

    ------------------------------------------------
       NWT REQUIRED            4 OUTER ITERATIONS 
       AND A TOTAL OF          7 INNER ITERATIONS.
    ------------------------------------------------

 NO OUTPUT CONTROL FOR STRESS PERIOD   34   TIME STEP   23
 
 SOLVING FOR HEAD 
                                                   Max.-Head-Change                         Max.-Flux-Residual
  Residual-Control   Outer-Iter.   Inner-Iter.     Column Row Layer    Maximum-Head-Change  Column Row Layer    Maximum-Flux-Residual          L2-NORM 
          0                 1           2             4    7     1       0.6353683851E-01       4    7    1         0.3337857406E+01      0.7061830328E+01
          0                 2           2             4    7     1      -0.4102472746E-01       4    7    1        -0.2203789035E+01      0.5155563418E+01
          0                 3           2             4    7     1       0.9265954091E-02       4    7    1         0.5114261771E+00      0.1150310853E+01
          0                 4           2             5    8     1       0.4011521399E-03       5    8    1         0.2402516372E-01      0.5246561430E-01
          0                 5           1             5    8     1       0.5169488348E-04       5    8    1         0.3006208993E-02      0.3068701225E-02

    ------------------------------------------------
       NWT REQUIRED            5 OUTER ITERATIONS 
       AND A TOTAL OF          9 INNER ITERATIONS.
    ------------------------------------------------

 NO OUTPUT CONTROL FOR STRESS PERIOD   34   TIME STEP   24
 
 SOLVING FOR HEAD 
                                                   Max.-Head-Change                         Max.-Flux-Residual
  Residual-Control   Outer-Iter.   Inner-Iter.     Column Row Layer    Maximum-Head-Change  Column Row Layer    Maximum-Flux-Residual          L2-NORM 
          0                 1           2             4    7     1       0.6296701667E-01       4    7    1         0.3308252068E+01      0.6994461789E+01
          0                 2           2             4    7     1      -0.6122636752E-02       4    7    1        -0.3308285084E+00      0.6947338498E+00
          0                 3           2             4    7     1       0.4171126990E-03       4    7    1         0.2315797287E-01      0.4871140595E-01
          0                 4           1             4    7     1      -0.1658306717E-04       4    7    1        -0.9471625679E-03      0.2147896637E-02

    ------------------------------------------------
       NWT REQUIRED            4 OUTER ITERATIONS 
       AND A TOTAL OF          7 INNER ITERATIONS.
    ------------------------------------------------

 NO OUTPUT CONTROL FOR STRESS PERIOD   34   TIME STEP   25
 
 SOLVING FOR HEAD 
                                                   Max.-Head-Change                         Max.-Flux-Residual
  Residual-Control   Outer-Iter.   Inner-Iter.     Column Row Layer    Maximum-Head-Change  Column Row Layer    Maximum-Flux-Residual          L2-NORM 
          0                 1           2             4    7     1       0.6225473636E-01       4    7    1         0.3271715274E+01      0.6863494952E+01
          0                 2           2             4    7     1      -0.4089997052E-01       4    7    1        -0.2197174909E+01      0.5137813592E+01
          0                 3           2             4    7     1       0.9257444664E-02       4    7    1         0.5109631791E+00      0.1148961756E+01
          0                 4           2             5    8     1       0.4008697514E-03       5    8    1         0.2400812452E-01      0.5240929775E-01
          0                 5           1             5    8     1       0.5165845817E-04       5    8    1         0.3004082250E-02      0.3066487356E-02

    ------------------------------------------------
       NWT REQUIRED            5 OUTER ITERATIONS 
       AND A TOTAL OF          9 INNER ITERATIONS.
    ------------------------------------------------

 NO OUTPUT CONTROL FOR STRESS PERIOD   34   TIME STEP   26
 
 SOLVING FOR HEAD 
                                                   Max.-Head-Change                         Max.-Flux-Residual
  Residual-Control   Outer-Iter.   Inner-Iter.     Column Row Layer    Maximum-Head-Change  Column Row Layer    Maximum-Flux-Residual          L2-NORM 
          0                 1           2             4    7     1       0.6167884133E-01       4    7    1         0.3241640723E+01      0.6802013612E+01
          0                 2           2             4    7     1      -0.5997355046E-02       4    7    1        -0.3241674361E+00      0.6753651574E+00
          0                 3           2             4    7     1       0.4085797904E-03       4    7    1         0.2269169710E-01      0.4736032212E-01
          0                 4           1             5    8     1       0.1635719745E-04       4    7    1        -0.9280918507E-03      0.2093775713E-02

    ------------------------------------------------
       NWT REQUIRED            4 OUTER ITERATIONS 
       AND A TOTAL OF          7 INNER ITERATIONS.
    ------------------------------------------------

 NO OUTPUT CONTROL FOR STRESS PERIOD   34   TIME STEP   27
 
 SOLVING FOR HEAD 
                                                   Max.-Head-Change                         Max.-Flux-Residual
  Residual-Control   Outer-Iter.   Inner-Iter.     Column Row Layer    Maximum-Head-Change  Column Row Layer    Maximum-Flux-Residual          L2-NORM 
          0                 1           2             4    7     1       0.6096326049E-01       4    7    1         0.3204794039E+01      0.6677162575E+01
          0                 2           2             4    7     1      -0.4077430221E-01       4    7    1        -0.2190482822E+01      0.5121257224E+01
          0                 3           2             4    7     1       0.9248872557E-02       4    7    1         0.5104947270E+00      0.1147695736E+01
          0                 4           2             5    8     1       0.4005398709E-03       5    8    1         0.2398838853E-01      0.5235559831E-01
          0                 5           1             5    8     1       0.5161590326E-04       5    8    1         0.3001597600E-02      0.3063946134E-02

    ------------------------------------------------
       NWT REQUIRED            5 OUTER ITERATIONS 
       AND A TOTAL OF          9 INNER ITERATIONS.
    ------------------------------------------------

 NO OUTPUT CONTROL FOR STRESS PERIOD   34   TIME STEP   28
 
 SOLVING FOR HEAD 
                                                   Max.-Head-Change                         Max.-Flux-Residual
  Residual-Control   Outer-Iter.   Inner-Iter.     Column Row Layer    Maximum-Head-Change  Column Row Layer    Maximum-Flux-Residual          L2-NORM 
          0                 1           2             4    7     1       0.6038624874E-01       4    7    1         0.3174535977E+01      0.6620972819E+01
          0                 2           2             4    7     1      -0.5871645901E-02       4    7    1        -0.3174569797E+00      0.6571671067E+00
          0                 3           2             4    7     1       0.4000175590E-03       4    7    1         0.2222196485E-01      0.4609033183E-01
          0                 4           1             5    8     1       0.1618449528E-04       5    8    1         0.9163831185E-03      0.2042520867E-02

    ------------------------------------------------
       NWT REQUIRED            4 OUTER ITERATIONS 
       AND A TOTAL OF          7 INNER ITERATIONS.
    ------------------------------------------------

 NO OUTPUT CONTROL FOR STRESS PERIOD   34   TIME STEP   29
 
 SOLVING FOR HEAD 
                                                   Max.-Head-Change                         Max.-Flux-Residual
  Residual-Control   Outer-Iter.   Inner-Iter.     Column Row Layer    Maximum-Head-Change  Column Row Layer    Maximum-Flux-Residual          L2-NORM 
          0                 1           2             4    7     1       0.5967181614E-01       4    7    1         0.3137636305E+01      0.6501675974E+01
          0                 2           2             4    7     1      -0.4064863729E-01       4    7    1        -0.2183767047E+01      0.5105771950E+01
          0                 3           2             4    7     1       0.9240300259E-02       4    7    1         0.5100246195E+00      0.1146500638E+01
          0                 4           2             5    8     1       0.4001765153E-03       5    8    1         0.2396675994E-01      0.5230335892E-01
          0                 5           1             5    8     1       0.5156902638E-04       5    8    1         0.2998860735E-02      0.3061086546E-02

    ------------------------------------------------
       NWT REQUIRED            5 OUTER ITERATIONS 
       AND A TOTAL OF          9 INNER ITERATIONS.
    ------------------------------------------------

 NO OUTPUT CONTROL FOR STRESS PERIOD   34   TIME STEP   30



 STREAM LISTING     PERIOD     34   STEP       30

 LAYER ROW COL. STREAM  RCH.  FLOW INTO     FLOW TO   FLOW OUT OF   OVRLND.     DIRECT     STREAM       STREAM     STREAM     STREAM   STREAMBED  STREAMBED
                SEG.NO.  NO.  STRM. RCH.    AQUIFER    STRM. RCH.    RUNOFF     PRECIP       ET          HEAD       DEPTH      WIDTH   CONDCTNC.   GRADIENT

   1    1    1     1     1    1.7624E+01  2.0521E-01   1.7419E+01  0.000E+00  0.000E+00  0.000E+00  1.09411E+03  1.059E+00  1.124E+01  5.056E-02  1.353E+00
   1    2    2     1     2    1.7419E+01  3.1648E-01   1.7103E+01  0.000E+00  0.000E+00  0.000E+00  1.08911E+03  1.054E+00  1.115E+01  7.807E-02  1.351E+00
   1    3    3     1     3    1.7103E+01  2.6863E-01   1.6834E+01  0.000E+00  0.000E+00  0.000E+00  1.08347E+03  1.049E+00  1.106E+01  6.635E-02  1.350E+00
   1    3    4     1     4    1.6834E+01  2.4632E-01   1.6588E+01  0.000E+00  0.000E+00  0.000E+00  1.07845E+03  1.044E+00  1.097E+01  6.091E-02  1.348E+00
   1    4    5     2     1    1.4588E+01  3.0175E-01   1.4286E+01  0.000E+00  0.000E+00  0.000E+00  1.07280E+03  8.686E-01  1.200E+01  7.800E-02  1.290E+00
   1    5    6     2     2    1.4286E+01  2.3154E-01   1.4055E+01  0.000E+00  0.000E+00  0.000E+00  1.06737E+03  8.590E-01  1.200E+01  6.000E-02  1.286E+00
   1    6    6     2     3    1.4055E+01  2.3103E-01   1.3824E+01  0.000E+00  0.000E+00  0.000E+00  1.06264E+03  8.505E-01  1.200E+01  6.000E-02  1.284E+00
   1    7    6     2     4    1.3824E+01  2.3052E-01   1.3593E+01  0.000E+00  0.000E+00  0.000E+00  1.05792E+03  8.420E-01  1.200E+01  6.000E-02  1.281E+00
   1    8    6     2     5    1.3593E+01  2.3001E-01   1.3363E+01  0.000E+00  0.000E+00  0.000E+00  1.05319E+03  8.335E-01  1.200E+01  6.000E-02  1.278E+00
   1    3    5     3     1    2.0000E+00  2.8252E-01   1.7175E+00  0.000E+00  0.000E+00  0.000E+00  1.07555E+03  1.909E+00  9.636E+00  7.227E-02  1.955E+00
   1    3    6     3     2    1.7175E+00  2.4905E-01   1.4684E+00  0.000E+00  0.000E+00  0.000E+00  1.07264E+03  1.727E+00  8.909E+00  6.682E-02  1.864E+00
   1    3    7     3     3    1.4684E+00  1.9718E-01   1.2712E+00  0.000E+00  0.000E+00  0.000E+00  1.06987E+03  1.555E+00  8.218E+00  5.547E-02  1.777E+00
   1    4    8     3     4    1.2712E+00  2.2567E-01   1.0456E+00  0.000E+00  0.000E+00  0.000E+00  1.06682E+03  1.364E+00  7.455E+00  6.709E-02  1.682E+00
   1    5    8     3     5    1.0456E+00  1.5790E-01   8.8768E-01  0.000E+00  0.000E+00  0.000E+00  1.06362E+03  1.164E+00  6.655E+00  4.991E-02  1.582E+00
   1    6    8     3     6    8.8768E-01  5.5980E-02   8.3170E-01  0.000E+00  0.000E+00  0.000E+00  1.06158E+03  1.036E+00  6.145E+00  1.844E-02  1.518E+00
   1    5   10     4     1    1.0000E+01  9.0919E-02   9.9091E+00  0.000E+00  0.000E+00  0.000E+00  1.07836E+03  6.368E-01  1.000E+01  2.500E-02  1.212E+00
   1    5    9     4     2    9.9091E+00  1.8158E-01   9.7275E+00  0.000E+00  0.000E+00  0.000E+00  1.07154E+03  6.315E-01  1.000E+01  5.000E-02  1.211E+00
   1    6    8     4     3    9.7275E+00  1.2689E-01   9.6006E+00  0.000E+00  0.000E+00  0.000E+00  1.06381E+03  6.256E-01  1.000E+01  3.500E-02  1.209E+00
   1    6    8     5     1    1.0432E+01  2.2686E-01   1.0205E+01  0.000E+00  0.000E+00  0.000E+00  1.05868E+03  6.790E-01  1.542E+01  6.166E-02  1.226E+00
   1    7    7     5     2    1.0205E+01  2.7894E-01   9.9265E+00  0.000E+00  0.000E+00  0.000E+00  1.05417E+03  6.732E-01  1.519E+01  7.594E-02  1.224E+00
   1    8    7     5     3    9.9265E+00  1.9221E-01   9.7343E+00  0.000E+00  0.000E+00  0.000E+00  1.04992E+03  6.676E-01  1.497E+01  5.241E-02  1.223E+00
   1    8    6     5     4    9.7343E+00  1.3577E-01   9.5985E+00  0.000E+00  0.000E+00  0.000E+00  1.04691E+03  6.637E-01  1.482E+01  3.706E-02  1.221E+00
   1    9    6     6     1    9.5985E+00  2.2097E-01   9.3776E+00  0.000E+00  0.000E+00  0.000E+00  1.04341E+03  6.828E-01  1.200E+01  6.000E-02  1.228E+00
   1   10    7     6     2    9.3776E+00  2.2039E-01   9.1572E+00  0.000E+00  0.000E+00  0.000E+00  1.03885E+03  6.732E-01  1.200E+01  6.000E-02  1.224E+00
   1   11    7     6     3    9.1572E+00  2.1981E-01   8.9374E+00  0.000E+00  0.000E+00  0.000E+00  1.03430E+03  6.636E-01  1.200E+01  6.000E-02  1.221E+00
   1   12    7     6     4    8.9374E+00  2.1923E-01   8.7181E+00  0.000E+00  0.000E+00  0.000E+00  1.02974E+03  6.539E-01  1.200E+01  6.000E-02  1.218E+00
   1   13    7     6     5    8.7181E+00  3.5907E-04   8.7178E+00  0.000E+00  0.000E+00  0.000E+00  1.02656E+03  6.490E-01  1.200E+01  2.400E-02  4.987E-03
   1   14    9     7     1    1.5000E+02  1.3895E+00   1.4861E+02  0.000E+00  0.000E+00  0.000E+00  1.03987E+03  2.288E+00  5.529E+01  5.593E-01  8.282E-01
   1   13    8     7     2    1.4861E+02  2.0059E+00   1.4660E+02  0.000E+00  0.000E+00  0.000E+00  1.03478E+03  2.279E+00  5.525E+01  6.147E-01  1.088E+00
   1   13    7     7     3    1.4660E+02  1.7559E+00   1.4485E+02  0.000E+00  0.000E+00  0.000E+00  1.02969E+03  2.269E+00  5.521E+01  5.584E-01  1.048E+00
   1   13    6     8     1    1.5357E+02  1.1064E+00   1.5246E+02  0.000E+00  0.000E+00  0.000E+00  1.02471E+03  2.838E+00  4.115E+01  4.193E-01  8.795E-01
   1   13    5     8     2    1.5246E+02  3.6122E-01   1.5210E+02  0.000E+00  0.000E+00  0.000E+00  1.01846E+03  2.833E+00  4.108E+01  4.186E-01  2.877E-01
   1   13    4     8     3    1.5210E+02 -1.8683E+00   1.5397E+02  0.000E+00  0.000E+00  0.000E+00  1.01221E+03  2.838E+00  4.115E+01  4.194E+00 -1.485E-01
   1   13    3     8     4    1.5397E+02 -3.4117E+00   1.5738E+02  0.000E+00  0.000E+00  0.000E+00  1.00598E+03  2.856E+00  4.142E+01  4.221E+00 -2.695E-01
   1   13    2     8     5    1.5738E+02 -2.6115E+00   1.5999E+02  0.000E+00  0.000E+00  0.000E+00  9.99752E+02  2.877E+00  4.172E+01  4.251E+00 -2.048E-01
   1   13    1     8     6    1.5999E+02 -2.0171E+00   1.6201E+02  0.000E+00  0.000E+00  0.000E+00  9.94768E+02  2.893E+00  4.194E+01  2.564E+00 -2.622E-01
   1    8    6     9     1    1.3363E+01  0.0000E+00   1.3363E+01  0.000E+00  0.000E+00  0.000E+00  1.08145E+03  2.697E+00  4.000E+00  0.000E+00  1.899E+00
   1    8    5     9     2    1.3363E+01  0.0000E+00   1.3363E+01  0.000E+00  0.000E+00  0.000E+00  1.08095E+03  2.697E+00  4.000E+00  0.000E+00  1.899E+00





UNSATURATED ZONE PACKAGE VOLUMETRIC BUDGET FOR  TIME STEP    30 STRESS PERIOD   34
  ------------------------------------------------------------------------------



     CUMULATIVE VOLUMES      L**3       RATES FOR THIS TIME STEP      L**3/T
     ------------------                 ------------------------

           IN:                                      IN:
           ---                                      ---
        INFILTRATION =  1538525454.3812          INFILTRATION =          23.2878

          OUT:                                     OUT:
          ----                                     ----
              UZF ET =  1276055955.2782                UZF ET =          12.0675
        UZF RECHARGE =     3307890.4890          UZF RECHARGE =           0.0404

            IN - OUT =   259161608.6140              IN - OUT =          11.1799

          STORAGE:                                 STORAGE:
          --------                                 --------
      STORAGE CHANGE =   259162787.0878        STORAGE CHANGE =          11.1799

 PERCENT DISCREPANCY IS DIFFERENCE BETWEEN IN-OUT MINUS CHANGE IN STORAGE
 DIVIDED BY THE AVERAGE OF IN AND OUT TIMES 100

 PERCENT DISCREPANCY =          -0.00     PERCENT DISCREPANCY =           0.00






1
  VOLUMETRIC BUDGET FOR AGRICULTURAL FIELDS AT  END OF TIME STEP   30, STRESS PERIOD  34
  ------------------------------------------------------------------------------

     CUMULATIVE VOLUMES      L**3       RATES FOR THIS TIME STEP      L**3/T
     ------------------                 ------------------------

           IN:                                      IN:
           ---                                      ---
               AG WELLS  =   964111616.0000                 AG WELLS  =           9.0770
      DIVERSION SEGMENTS =   500785216.0000        DIVERSION SEGMENTS =          13.3630
           GW IRRIGATION =           0.0000             GW IRRIGATION =           0.0000
           SW IRRIGATION =           0.0000             SW IRRIGATION =           0.0000
        SYSTEM LOSSES GW =           0.0000          SYSTEM LOSSES GW =           0.0000
        SYSTEM LOSSES SW =           0.0000          SYSTEM LOSSES SW =           0.0000

                TOTAL IN =  1464896768.0000                  TOTAL IN =          22.4400

          OUT:                                     OUT:
          ----                                     ----
               AG WELLS  =           0.0000                 AG WELLS  =           0.0000
      DIVERSION SEGMENTS =           0.0000        DIVERSION SEGMENTS =           0.0000
           GW IRRIGATION =   964111616.0000             GW IRRIGATION =           9.0770
           SW IRRIGATION =   500794688.0000             SW IRRIGATION =          13.3632
        SYSTEM LOSSES GW =           0.0000          SYSTEM LOSSES GW =           0.0000
        SYSTEM LOSSES SW =           0.0000          SYSTEM LOSSES SW =           0.0000

               TOTAL OUT =  1464906240.0000                 TOTAL OUT =          22.4403

                IN - OUT =       -9472.0000                  IN - OUT =      -2.6703E-04

     PERCENT DISCREPANCY =          -0.00         PERCENT DISCREPANCY =          -0.00



1
  VOLUMETRIC BUDGET FOR ENTIRE MODEL AT END OF TIME STEP   30, STRESS PERIOD  34
  ------------------------------------------------------------------------------

     CUMULATIVE VOLUMES      L**3       RATES FOR THIS TIME STEP      L**3/T
     ------------------                 ------------------------

           IN:                                      IN:
           ---                                      ---
             STORAGE     =  1367292160.0000               STORAGE     =          12.8143
       CONSTANT HEAD     =           0.0000         CONSTANT HEAD     =           0.0000
     HEAD DEP BOUNDS     =    25051148.0000       HEAD DEP BOUNDS     =           0.2894
      STREAM LEAKAGE     =  1035077824.0000        STREAM LEAKAGE     =          12.1627
        UZF RECHARGE     =     3307890.5000          UZF RECHARGE     =       4.0409E-02
               GW ET     =           0.0000                 GW ET     =           0.0000
     SURFACE LEAKAGE     =           0.0000       SURFACE LEAKAGE     =           0.0000
           AG WELLS      =           0.0000             AG WELLS      =           0.0000

                TOTAL IN =  2430728960.0000                  TOTAL IN =          25.3068

          OUT:                                     OUT:
          ----                                     ----
             STORAGE     =   574313856.0000               STORAGE     =           6.0337
       CONSTANT HEAD     =           0.0000         CONSTANT HEAD     =           0.0000
     HEAD DEP BOUNDS     =    25019998.0000       HEAD DEP BOUNDS     =           0.2871
      STREAM LEAKAGE     =   867298944.0000        STREAM LEAKAGE     =           9.9086
        UZF RECHARGE     =           0.0000          UZF RECHARGE     =           0.0000
               GW ET     =           0.0000                 GW ET     =           0.0000
     SURFACE LEAKAGE     =           0.0000       SURFACE LEAKAGE     =           0.0000
           AG WELLS      =   964111616.0000             AG WELLS      =           9.0770

               TOTAL OUT =  2430744320.0000                 TOTAL OUT =          25.3064

                IN - OUT =      -15360.0000                  IN - OUT =       4.2152E-04

     PERCENT DISCREPANCY =          -0.00         PERCENT DISCREPANCY =           0.00






         TIME SUMMARY AT END OF TIME STEP   30 IN STRESS PERIOD   34
                    SECONDS     MINUTES      HOURS       DAYS        YEARS
                    -----------------------------------------------------------
   TIME STEP LENGTH  87667.      1461.1      24.352      1.0147     2.77799E-03
 STRESS PERIOD TIME 2.63000E+06  43833.      730.56      30.440     8.33397E-02
         TOTAL TIME 8.68762E+07 1.44794E+06  24132.      1005.5      2.7529    
1
1
                            STRESS PERIOD NO.   35, LENGTH =   2630000.    
                            -----------------------------------------------

                              NUMBER OF TIME STEPS =    30

                               MULTIPLIER FOR DELT =     1.000

                            INITIAL TIME STEP SIZE =   87666.66    

 REUSING NON-PARAMETER GHB CELLS FROM LAST STRESS PERIOD

      2 GHB CELLS

 REUSING STREAM SEGMENT DATA FROM LAST STRESS PERIOD



            AREAL INFILTRATION RATE
 READING ON UNIT   19 WITH FORMAT: (FREE)              

            1           2           3           4           5           6           7           8           9          10
 ........................................................................................................................
   1   1.0000E-10  2.0000E-10   0.000       0.000       0.000       0.000       0.000       0.000       0.000       0.000    
   2   2.0000E-10  1.0000E-10  2.0000E-10   0.000       0.000      8.0000E-10  8.0000E-10  5.0000E-10   0.000       0.000    
   3    0.000      5.0000E-10  1.0000E-10  1.0000E-10  8.0000E-10  8.0000E-10  5.0000E-10  5.0000E-10   0.000       0.000    
   4   8.0000E-10  5.0000E-10  1.0000E-10  1.0000E-10  1.0000E-10  1.0000E-10  1.0000E-10  1.0000E-10  2.0000E-10   0.000    
   5   8.0000E-10  5.0000E-10  1.0000E-10  1.0000E-10  1.0000E-10  1.0000E-10  1.0000E-10  1.0000E-10  1.0000E-10  1.0000E-10
   6   8.0000E-10  5.0000E-10  5.0000E-10  2.0000E-10  2.0000E-10  1.0000E-10  1.0000E-10  1.0000E-10  1.0000E-10  5.0000E-10
   7   8.0000E-10  5.0000E-10  5.0000E-10  2.0000E-10  2.0000E-10  1.0000E-10  1.0000E-10  2.0000E-10  2.0000E-10   0.000    
   8    0.000      5.0000E-10  5.0000E-10  2.0000E-10  2.0000E-10  1.0000E-10  1.0000E-10  2.0000E-10  5.0000E-10   0.000    
   9    0.000      5.0000E-10  5.0000E-10  2.0000E-10  2.0000E-10  1.0000E-10  1.0000E-10  2.0000E-10  5.0000E-10   0.000    
  10    0.000      5.0000E-10  5.0000E-10  2.0000E-10  2.0000E-10  1.0000E-10  1.0000E-10  2.0000E-10  5.0000E-10  8.0000E-10
  11    0.000      1.0000E-10  1.0000E-10  1.0000E-10  1.0000E-10  1.0000E-10  1.0000E-10  2.0000E-10  5.0000E-10   0.000    
  12   1.0000E-10  1.0000E-10  1.0000E-10  1.0000E-10  1.0000E-10  1.0000E-10  1.0000E-10  1.0000E-10  2.0000E-10   0.000    
  13   1.0000E-10  1.0000E-10  2.0000E-10  2.0000E-10  2.0000E-10  2.0000E-10  2.0000E-10  1.0000E-10  1.0000E-10   0.000    
  14    0.000      2.0000E-10  5.0000E-10  5.0000E-10  5.0000E-10  5.0000E-10  5.0000E-10  2.0000E-10  1.0000E-10   0.000    
  15    0.000       0.000      8.0000E-10  8.0000E-10  8.0000E-10  8.0000E-10   0.000       0.000       0.000       0.000    

                  ET RATE =  5.000000E-09

 USING ET EXTINCTION DEPTH FROM PREVIOUS STRESS PERIOD. CURRENT PERIOD IS:      35

 USING EXTINCTION WATER CONTENT FROM PREVIOUS STRESS PERIOD. CURRENT PERIOD IS:      35

 USING AIR ENTRY PRESSURE FROM PREVIOUS STRESS PERIOD. CURRENT PERIOD IS:      35

 USING ROOT PRESSURE HEAD FROM PREVIOUS STRESS PERIOD. CURRENT PERIOD IS:      35

 USING ROOT ACTIVITY FROM PREVIOUS STRESS PERIOD. CURRENT PERIOD IS:      35

 PROCESSING AG STRESS PERIOD DATA

 READING AG STRESS PERIOD DATA

 READING IRRIGATION SEGMENT

 READING IRRIGATION WELL

 READING SUPPLEMENTAL WELL

 END PROCESSING AG STRESS PERIOD DATA OPTIONS
 
 SOLVING FOR HEAD 
                                                   Max.-Head-Change                         Max.-Flux-Residual
  Residual-Control   Outer-Iter.   Inner-Iter.     Column Row Layer    Maximum-Head-Change  Column Row Layer    Maximum-Flux-Residual          L2-NORM 
          0                 1           2             4    7     1       0.5909794216E-01       4    7    1         0.3107439990E+01      0.6450274881E+01
          0                 2           2             4    7     1      -0.5746355162E-02       4    7    1        -0.3107473654E+00      0.6400275729E+00
          0                 3           2             4    7     1       0.3914836706E-03       4    7    1         0.2175229187E-01      0.4489366843E-01
          0                 4           1             5    8     1       0.1599818331E-04       5    8    1         0.9056488973E-03      0.1993945990E-02

    ------------------------------------------------
       NWT REQUIRED            4 OUTER ITERATIONS 
       AND A TOTAL OF          7 INNER ITERATIONS.
    ------------------------------------------------

 NO OUTPUT CONTROL FOR STRESS PERIOD   35   TIME STEP    1
 
 SOLVING FOR HEAD 
                                                   Max.-Head-Change                         Max.-Flux-Residual
  Residual-Control   Outer-Iter.   Inner-Iter.     Column Row Layer    Maximum-Head-Change  Column Row Layer    Maximum-Flux-Residual          L2-NORM 
          0                 1           2             4    7     1       0.5838818717E-01       4    7    1         0.3070693373E+01      0.6335891315E+01
          0                 2           2             4    7     1      -0.5677371780E-02       4    7    1        -0.3070727185E+00      0.6288200105E+00
          0                 3           2             4    7     1       0.3867818129E-03       4    7    1         0.2149506640E-01      0.4410560695E-01
          0                 4           1             5    8     1       0.1560716621E-04       5    8    1         0.8835947076E-03      0.1956855880E-02

    ------------------------------------------------
       NWT REQUIRED            4 OUTER ITERATIONS 
       AND A TOTAL OF          7 INNER ITERATIONS.
    ------------------------------------------------

 NO OUTPUT CONTROL FOR STRESS PERIOD   35   TIME STEP    2
 
 SOLVING FOR HEAD 
                                                   Max.-Head-Change                         Max.-Flux-Residual
  Residual-Control   Outer-Iter.   Inner-Iter.     Column Row Layer    Maximum-Head-Change  Column Row Layer    Maximum-Flux-Residual          L2-NORM 
          0                 1           2             4    7     1       0.5767697851E-01       4    7    1         0.3033818168E+01      0.6227214833E+01
          0                 2           2             4    7     1      -0.5608244880E-02       4    7    1        -0.3033852439E+00      0.6181554266E+00
          0                 3           2             4    7     1       0.3820711208E-03       4    7    1         0.2123698315E-01      0.4335465344E-01
          0                 4           1             5    8     1       0.1523523708E-04       4    7    1        -0.8685939617E-03      0.1921731502E-02

    ------------------------------------------------
       NWT REQUIRED            4 OUTER ITERATIONS 
       AND A TOTAL OF          7 INNER ITERATIONS.
    ------------------------------------------------

 NO OUTPUT CONTROL FOR STRESS PERIOD   35   TIME STEP    3
 
 SOLVING FOR HEAD 
                                                   Max.-Head-Change                         Max.-Flux-Residual
  Residual-Control   Outer-Iter.   Inner-Iter.     Column Row Layer    Maximum-Head-Change  Column Row Layer    Maximum-Flux-Residual          L2-NORM 
          0                 1           2             4    7     1       0.5696515704E-01       4    7    1         0.2996860482E+01      0.6120776140E+01
          0                 2           2             4    7     1      -0.5539054751E-02       4    7    1        -0.2996894670E+00      0.6076941072E+00
          0                 3           2             4    7     1       0.3773555016E-03       4    7    1         0.2097827317E-01      0.4261757818E-01
          0                 4           1             4    7     1      -0.1500335600E-04       4    7    1        -0.8580620920E-03      0.1887432666E-02

    ------------------------------------------------
       NWT REQUIRED            4 OUTER ITERATIONS 
       AND A TOTAL OF          7 INNER ITERATIONS.
    ------------------------------------------------

 NO OUTPUT CONTROL FOR STRESS PERIOD   35   TIME STEP    4
 
 SOLVING FOR HEAD 
                                                   Max.-Head-Change                         Max.-Flux-Residual
  Residual-Control   Outer-Iter.   Inner-Iter.     Column Row Layer    Maximum-Head-Change  Column Row Layer    Maximum-Flux-Residual          L2-NORM 
          0                 1           2             4    7     1       0.5625363016E-01       4    7    1         0.2959871153E+01      0.6017657708E+01
          0                 2           2             4    7     1      -0.5469890188E-02       4    7    1        -0.2959904894E+00      0.5975518974E+00
          0                 3           2             4    7     1       0.3726412877E-03       4    7    1         0.2071931025E-01      0.4190263187E-01
          0                 4           1             4    7     1      -0.1481519099E-04       4    7    1        -0.8474211133E-03      0.1854291148E-02

    ------------------------------------------------
       NWT REQUIRED            4 OUTER ITERATIONS 
       AND A TOTAL OF          7 INNER ITERATIONS.
    ------------------------------------------------

 NO OUTPUT CONTROL FOR STRESS PERIOD   35   TIME STEP    5
 
 SOLVING FOR HEAD 
                                                   Max.-Head-Change                         Max.-Flux-Residual
  Residual-Control   Outer-Iter.   Inner-Iter.     Column Row Layer    Maximum-Head-Change  Column Row Layer    Maximum-Flux-Residual          L2-NORM 
          0                 1           2             4    7     1       0.5554336542E-01       4    7    1         0.2922904464E+01      0.5917692028E+01
          0                 2           2             4    7     1      -0.5400860471E-02       4    7    1        -0.2922945455E+00      0.5877145217E+00
          0                 3           2             4    7     1       0.3679336943E-03       4    7    1         0.2046040864E-01      0.4120936122E-01
          0                 4           1             4    7     1      -0.1463590716E-04       4    7    1        -0.8372720313E-03      0.1822759801E-02

    ------------------------------------------------
       NWT REQUIRED            4 OUTER ITERATIONS 
       AND A TOTAL OF          7 INNER ITERATIONS.
    ------------------------------------------------

 NO OUTPUT CONTROL FOR STRESS PERIOD   35   TIME STEP    6
 
 SOLVING FOR HEAD 
                                                   Max.-Head-Change                         Max.-Flux-Residual
  Residual-Control   Outer-Iter.   Inner-Iter.     Column Row Layer    Maximum-Head-Change  Column Row Layer    Maximum-Flux-Residual          L2-NORM 
          0                 1           2             4    7     1       0.5483512930E-01       4    7    1         0.2886003335E+01      0.5820730895E+01
          0                 2           2             4    7     1      -0.7125273961E-02       4    7    1        -0.3848388167E+00      0.7712070802E+00
          0                 3           2             4    7     1       0.2229738608E-02       4    7    1         0.1231738273E+00      0.2857910563E+00
          0                 4           1             5    8     1       0.1452888512E-03       5    8    1         0.8161561600E-02      0.1367698953E-01
          0                 5           1             5    8     1       0.1153742071E-04       5    8    1         0.6343509690E-03      0.6539321561E-03

    ------------------------------------------------
       NWT REQUIRED            5 OUTER ITERATIONS 
       AND A TOTAL OF          8 INNER ITERATIONS.
    ------------------------------------------------

 NO OUTPUT CONTROL FOR STRESS PERIOD   35   TIME STEP    7
 
 SOLVING FOR HEAD 
                                                   Max.-Head-Change                         Max.-Flux-Residual
  Residual-Control   Outer-Iter.   Inner-Iter.     Column Row Layer    Maximum-Head-Change  Column Row Layer    Maximum-Flux-Residual          L2-NORM 
          0                 1           2             4    7     1       0.5412934827E-01       4    7    1         0.2849192819E+01      0.5726645841E+01
          0                 2           2             4    7     1      -0.5263386520E-02       4    7    1        -0.2849225886E+00      0.5688925543E+00
          0                 3           2             4    7     1       0.3585689624E-03       4    7    1         0.1994455766E-01      0.3988465480E-01
          0                 4           1             4    7     1      -0.1425602844E-04       4    7    1        -0.8157336913E-03      0.1761140744E-02

    ------------------------------------------------
       NWT REQUIRED            4 OUTER ITERATIONS 
       AND A TOTAL OF          7 INNER ITERATIONS.
    ------------------------------------------------

 NO OUTPUT CONTROL FOR STRESS PERIOD   35   TIME STEP    8
 
 SOLVING FOR HEAD 
                                                   Max.-Head-Change                         Max.-Flux-Residual
  Residual-Control   Outer-Iter.   Inner-Iter.     Column Row Layer    Maximum-Head-Change  Column Row Layer    Maximum-Flux-Residual          L2-NORM 
          0                 1           2             4    7     1       0.5342708510E-01       4    7    1         0.2812531756E+01      0.5635247212E+01
          0                 2           2             4    7     1      -0.7340078680E-02       4    7    1        -0.3963649994E+00      0.7938721655E+00
          0                 3           2             4    7     1       0.2586458126E-02       4    7    1         0.1428540583E+00      0.3329597874E+00
          0                 4           1             5    8     1       0.2617047547E-03       5    8    1         0.1543520971E-01      0.2009632186E-01
          0                 5           1             5    8     1       0.3372414530E-04       5    8    1         0.1964125604E-02      0.1972499645E-02

    ------------------------------------------------
       NWT REQUIRED            5 OUTER ITERATIONS 
       AND A TOTAL OF          8 INNER ITERATIONS.
    ------------------------------------------------

 NO OUTPUT CONTROL FOR STRESS PERIOD   35   TIME STEP    9
 
 SOLVING FOR HEAD 
                                                   Max.-Head-Change                         Max.-Flux-Residual
  Residual-Control   Outer-Iter.   Inner-Iter.     Column Row Layer    Maximum-Head-Change  Column Row Layer    Maximum-Flux-Residual          L2-NORM 
          0                 1           2             4    7     1       0.5272851000E-01       4    7    1         0.2776031008E+01      0.5546482154E+01
          0                 2           2             4    7     1      -0.5127200607E-02       4    7    1        -0.2776063386E+00      0.5511240413E+00
          0                 3           2             4    7     1       0.3492891532E-03       4    7    1         0.1943242065E-01      0.3863437645E-01
          0                 4           1             4    7     1      -0.1388724434E-04       4    7    1        -0.7947872473E-03      0.1703902134E-02

    ------------------------------------------------
       NWT REQUIRED            4 OUTER ITERATIONS 
       AND A TOTAL OF          7 INNER ITERATIONS.
    ------------------------------------------------

 NO OUTPUT CONTROL FOR STRESS PERIOD   35   TIME STEP   10
 
 SOLVING FOR HEAD 
                                                   Max.-Head-Change                         Max.-Flux-Residual
  Residual-Control   Outer-Iter.   Inner-Iter.     Column Row Layer    Maximum-Head-Change  Column Row Layer    Maximum-Flux-Residual          L2-NORM 
          0                 1           2             4    7     1       0.5203457660E-01       4    7    1         0.2739743839E+01      0.5460149351E+01
          0                 2           2             4    7     1      -0.7223029946E-02       4    7    1        -0.3901773171E+00      0.7787362373E+00
          0                 3           2             4    7     1       0.2593585818E-02       4    7    1         0.1432566428E+00      0.3338327057E+00
          0                 4           1             5    8     1       0.2623542789E-03       5    8    1         0.1547380658E-01      0.2014834713E-01
          0                 5           1             5    8     1       0.3380770322E-04       5    8    1         0.1968989345E-02      0.1977399266E-02

    ------------------------------------------------
       NWT REQUIRED            5 OUTER ITERATIONS 
       AND A TOTAL OF          8 INNER ITERATIONS.
    ------------------------------------------------

 NO OUTPUT CONTROL FOR STRESS PERIOD   35   TIME STEP   11
 
 SOLVING FOR HEAD 
                                                   Max.-Head-Change                         Max.-Flux-Residual
  Residual-Control   Outer-Iter.   Inner-Iter.     Column Row Layer    Maximum-Head-Change  Column Row Layer    Maximum-Flux-Residual          L2-NORM 
          0                 1           2             4    7     1       0.5132648642E-01       4    7    1         0.2703533484E+01      0.5376213848E+01
          0                 2           2             4    7     1      -0.4990789722E-02       4    7    1        -0.2703566922E+00      0.5343152979E+00
          0                 3           2             4    7     1       0.3400026593E-03       4    7    1         0.1892494400E-01      0.3745214993E-01
          0                 4           1             4    7     1      -0.1351752518E-04       4    7    1        -0.7740314211E-03      0.1650082913E-02

    ------------------------------------------------
       NWT REQUIRED            4 OUTER ITERATIONS 
       AND A TOTAL OF          7 INNER ITERATIONS.
    ------------------------------------------------

 NO OUTPUT CONTROL FOR STRESS PERIOD   35   TIME STEP   12
 
 SOLVING FOR HEAD 
                                                   Max.-Head-Change                         Max.-Flux-Residual
  Residual-Control   Outer-Iter.   Inner-Iter.     Column Row Layer    Maximum-Head-Change  Column Row Layer    Maximum-Flux-Residual          L2-NORM 
          0                 1           2             4    7     1       0.5062766499E-01       4    7    1         0.2666893467E+01      0.5294424960E+01
          0                 2           2             4    7     1      -0.7090263040E-02       4    7    1        -0.3830087265E+00      0.7634248270E+00
          0                 3           2             4    7     1       0.2591273829E-02       4    7    1         0.1431266564E+00      0.3335837643E+00
          0                 4           1             5    8     1       0.2621437644E-03       5    8    1         0.1546165474E-01      0.2013347595E-01
          0                 5           1             5    8     1       0.3378045344E-04       5    8    1         0.1967399329E-02      0.1975870149E-02

    ------------------------------------------------
       NWT REQUIRED            5 OUTER ITERATIONS 
       AND A TOTAL OF          8 INNER ITERATIONS.
    ------------------------------------------------

 NO OUTPUT CONTROL FOR STRESS PERIOD   35   TIME STEP   13
 
 SOLVING FOR HEAD 
                                                   Max.-Head-Change                         Max.-Flux-Residual
  Residual-Control   Outer-Iter.   Inner-Iter.     Column Row Layer    Maximum-Head-Change  Column Row Layer    Maximum-Flux-Residual          L2-NORM 
          0                 1           2             4    7     1       0.4993560408E-01       4    7    1         0.2630585834E+01      0.5214851753E+01
          0                 2           2             4    7     1      -0.4855563138E-02       4    7    1        -0.2630618220E+00      0.5183714826E+00
          0                 3           2             4    7     1       0.3307888460E-03       4    7    1         0.1841430393E-01      0.3633122500E-01
          0                 4           1             4    7     1      -0.1315131649E-04       4    7    1        -0.7531462252E-03      0.1599303671E-02

    ------------------------------------------------
       NWT REQUIRED            4 OUTER ITERATIONS 
       AND A TOTAL OF          7 INNER ITERATIONS.
    ------------------------------------------------

 NO OUTPUT CONTROL FOR STRESS PERIOD   35   TIME STEP   14
 
 SOLVING FOR HEAD 
                                                   Max.-Head-Change                         Max.-Flux-Residual
  Residual-Control   Outer-Iter.   Inner-Iter.     Column Row Layer    Maximum-Head-Change  Column Row Layer    Maximum-Flux-Residual          L2-NORM 
          0                 1           2             4    7     1       0.4925062340E-01       4    7    1         0.2594629331E+01      0.5137322071E+01
          0                 2           2             4    7     1      -0.6962286636E-02       4    7    1        -0.3760994644E+00      0.7488126397E+00
          0                 3           2             4    7     1       0.2588299673E-02       4    7    1         0.1429602697E+00      0.3332574207E+00
          0                 4           1             5    8     1       0.2618990809E-03       5    8    1         0.1544743799E-01      0.2011500697E-01
          0                 5           1             5    8     1       0.3374880311E-04       5    8    1         0.1965554104E-02      0.1974043495E-02

    ------------------------------------------------
       NWT REQUIRED            5 OUTER ITERATIONS 
       AND A TOTAL OF          8 INNER ITERATIONS.
    ------------------------------------------------

 NO OUTPUT CONTROL FOR STRESS PERIOD   35   TIME STEP   15
 
 SOLVING FOR HEAD 
                                                   Max.-Head-Change                         Max.-Flux-Residual
  Residual-Control   Outer-Iter.   Inner-Iter.     Column Row Layer    Maximum-Head-Change  Column Row Layer    Maximum-Flux-Residual          L2-NORM 
          0                 1           2             5    8     1       0.7107369149E-01       5    8    1         0.3853453379E+01      0.6243454300E+01
          0                 2           2             5    8     1       0.2806090691E-01       5    8    1         0.1555301097E+01      0.1631034880E+01
          0                 3           2             5    8     1       0.1107880041E-01       5    8    1         0.6108339747E+00      0.6118372913E+00
          0                 4           1             5    8     1       0.4374056174E-02       5    8    1         0.2413781578E+00      0.2413809809E+00
          0                 5           1             5    8     1       0.1726935386E-02       5    8    1         0.9528904260E-01      0.9528953216E-01
          0                 6           1             5    8     1       0.6818170741E-03       5    8    1         0.3762197627E-01      0.3762212391E-01
          0                 7           1             5    8     1       0.2691904675E-03       5    8    1         0.1485361909E-01      0.1485367900E-01
          0                 8           1             5    8     1       0.1062799861E-03       5    8    1         0.5864410444E-02      0.5864434017E-02
          0                 9           1             5    8     1       0.4196075620E-04       5    8    1         0.2315347228E-02      0.2315356535E-02

    ------------------------------------------------
       NWT REQUIRED            9 OUTER ITERATIONS 
       AND A TOTAL OF         12 INNER ITERATIONS.
    ------------------------------------------------

 NO OUTPUT CONTROL FOR STRESS PERIOD   35   TIME STEP   16
 
 SOLVING FOR HEAD 
                                                   Max.-Head-Change                         Max.-Flux-Residual
  Residual-Control   Outer-Iter.   Inner-Iter.     Column Row Layer    Maximum-Head-Change  Column Row Layer    Maximum-Flux-Residual          L2-NORM 
          0                 1           2             5    8     1       0.2002337189E+00       5    8    1         0.1097688632E+02      0.1202802932E+02
          0                 2           2             5    8     1       0.7686729899E-01       5    8    1         0.4252614316E+01      0.4316908153E+01
          0                 3           2             5    8     1       0.3252948650E-01       5    8    1         0.1790715850E+01      0.1818197211E+01
          0                 4           2             5    8     1       0.1284236214E-01       5    8    1         0.7088358725E+00      0.7089322084E+00
          0                 5           1             5    8     1       0.5070056801E-02       5    8    1         0.2797639482E+00      0.2797662608E+00
          0                 6           1             5    8     1       0.2001616604E-02       5    8    1         0.1104520512E+00      0.1104524591E+00
          0                 7           1             5    8     1       0.7902218319E-03       5    8    1         0.4360541160E-01      0.4360558909E-01
          0                 8           1             5    8     1       0.3119731204E-03       5    8    1         0.1721507140E-01      0.1721514075E-01
          0                 9           1             5    8     1       0.1231644407E-03       5    8    1         0.6796369388E-02      0.6796396804E-02
          0                10           1             5    8     1       0.4862431566E-04       5    8    1         0.2683151289E-02      0.2683162181E-02

    ------------------------------------------------
       NWT REQUIRED           10 OUTER ITERATIONS 
       AND A TOTAL OF         14 INNER ITERATIONS.
    ------------------------------------------------

 NO OUTPUT CONTROL FOR STRESS PERIOD   35   TIME STEP   17
 
 SOLVING FOR HEAD 
                                                   Max.-Head-Change                         Max.-Flux-Residual
  Residual-Control   Outer-Iter.   Inner-Iter.     Column Row Layer    Maximum-Head-Change  Column Row Layer    Maximum-Flux-Residual          L2-NORM 
          0                 1           2             5    8     1       0.1805833680E+00       5    8    1         0.9878382576E+01      0.1112860069E+02
          0                 2           2             5    8     1       0.7128925407E-01       5    8    1         0.3942852623E+01      0.3976012447E+01
          0                 3           2             5    8     1       0.2817679236E-01       5    8    1         0.1552784911E+01      0.1553246231E+01
          0                 4           2             5    8     1       0.1113674716E-01       5    8    1         0.6140072208E+00      0.6140092859E+00
          0                 5           1             5    8     1       0.4401752555E-02       5    8    1         0.2426688419E+00      0.2426699405E+00
          0                 6           1             5    8     1       0.1739774975E-02       5    8    1         0.9591503902E-01      0.9591542309E-01
          0                 7           1             5    8     1       0.6876391716E-03       5    8    1         0.3790996638E-01      0.3791011980E-01
          0                 8           1             5    8     1       0.2717866792E-03       5    8    1         0.1498377537E-01      0.1498383592E-01
          0                 9           1             5    8     1       0.1074226190E-03       5    8    1         0.5922278100E-02      0.5922302364E-02
          0                10           1             5    8     1       0.4245836938E-04       5    8    1         0.2340757383E-02      0.2340767281E-02

    ------------------------------------------------
       NWT REQUIRED           10 OUTER ITERATIONS 
       AND A TOTAL OF         14 INNER ITERATIONS.
    ------------------------------------------------

 NO OUTPUT CONTROL FOR STRESS PERIOD   35   TIME STEP   18
 
 SOLVING FOR HEAD 
                                                   Max.-Head-Change                         Max.-Flux-Residual
  Residual-Control   Outer-Iter.   Inner-Iter.     Column Row Layer    Maximum-Head-Change  Column Row Layer    Maximum-Flux-Residual          L2-NORM 
          0                 1           2             5    8     1       0.1634170264E+00       5    8    1         0.8911447585E+01      0.1038097234E+02
          0                 2           2             5    8     1       0.6239610243E-01       5    8    1         0.3453650802E+01      0.3540762906E+01
          0                 3           2             5    8     1       0.2684966893E-01       5    8    1         0.1475791421E+01      0.1509549857E+01
          0                 4           2             5    8     1       0.1061154201E-01       5    8    1         0.5851968559E+00      0.5853207622E+00
          0                 5           1             5    8     1       0.4193902533E-02       5    8    1         0.2312035376E+00      0.2312066379E+00
          0                 6           1             5    8     1       0.1657518390E-02       5    8    1         0.9137980710E-01      0.9138048189E-01
          0                 7           1             5    8     1       0.6550861970E-03       5    8    1         0.3611510637E-01      0.3611539031E-01
          0                 8           1             5    8     1       0.2589038868E-03       5    8    1         0.1427345969E-01      0.1427357113E-01
          0                 9           1             5    8     1       0.1023242813E-03       5    8    1         0.5641172767E-02      0.5641216947E-02
          0                10           1             5    8     1       0.4044071634E-04       5    8    1         0.2229510679E-02      0.2229528193E-02

    ------------------------------------------------
       NWT REQUIRED           10 OUTER ITERATIONS 
       AND A TOTAL OF         14 INNER ITERATIONS.
    ------------------------------------------------

 NO OUTPUT CONTROL FOR STRESS PERIOD   35   TIME STEP   19
 
 SOLVING FOR HEAD 
                                                   Max.-Head-Change                         Max.-Flux-Residual
  Residual-Control   Outer-Iter.   Inner-Iter.     Column Row Layer    Maximum-Head-Change  Column Row Layer    Maximum-Flux-Residual          L2-NORM 
          0                 1           2             5    8     1       0.1482851132E+00       5    8    1         0.8067828692E+01      0.9766852685E+01
          0                 2           2             5    8     1       0.5860197402E-01       5    8    1         0.3242016168E+01      0.3288411323E+01
          0                 3           2             5    8     1       0.2315932796E-01       5    8    1         0.1276137286E+01      0.1276778729E+01
          0                 4           2             5    8     1       0.9152510117E-02       5    8    1         0.5046305416E+00      0.5046330199E+00
          0                 5           1             5    8     1       0.3617063571E-02       5    8    1         0.1994175451E+00      0.1994192705E+00
          0                 6           1             5    8     1       0.1429463593E-02       5    8    1         0.7881037919E-01      0.7881099112E-01
          0                 7           1             5    8     1       0.5649192862E-03       5    8    1         0.3114559856E-01      0.3114584196E-01
          0                 8           1             5    8     1       0.2232610552E-03       5    8    1         0.1230900478E-01      0.1230910239E-01
          0                 9           1             5    8     1       0.8823247123E-04       5    8    1         0.4864506709E-02      0.4864544705E-02

    ------------------------------------------------
       NWT REQUIRED            9 OUTER ITERATIONS 
       AND A TOTAL OF         13 INNER ITERATIONS.
    ------------------------------------------------

 NO OUTPUT CONTROL FOR STRESS PERIOD   35   TIME STEP   20
 
 SOLVING FOR HEAD 
                                                   Max.-Head-Change                         Max.-Flux-Residual
  Residual-Control   Outer-Iter.   Inner-Iter.     Column Row Layer    Maximum-Head-Change  Column Row Layer    Maximum-Flux-Residual          L2-NORM 
          0                 1           2             5    8     1       0.1348734054E+00       5    8    1         0.7320638313E+01      0.9254909328E+01
          0                 2           2             5    8     1       0.5109720197E-01       5    8    1         0.2832738207E+01      0.2946787667E+01
          0                 3           2             5    8     1       0.2239424822E-01       5    8    1         0.1230110082E+01      0.1271135640E+01
          0                 4           2             5    8     1       0.8849715498E-02       5    8    1         0.4881159600E+00      0.4882702603E+00
          0                 5           1             5    8     1       0.3497214934E-02       5    8    1         0.1928113012E+00      0.1928142127E+00
          0                 6           1             5    8     1       0.1382023720E-02       5    8    1         0.7619826258E-01      0.7619881919E-01
          0                 7           1             5    8     1       0.5461459640E-03       5    8    1         0.3011178198E-01      0.3011201979E-01
          0                 8           1             5    8     1       0.2158251164E-03       5    8    1         0.1189953459E-01      0.1189962799E-01
          0                 9           1             5    8     1       0.8528943710E-04       5    8    1         0.4702439831E-02      0.4702477353E-02

    ------------------------------------------------
       NWT REQUIRED            9 OUTER ITERATIONS 
       AND A TOTAL OF         13 INNER ITERATIONS.
    ------------------------------------------------

 NO OUTPUT CONTROL FOR STRESS PERIOD   35   TIME STEP   21
 
 SOLVING FOR HEAD 
                                                   Max.-Head-Change                         Max.-Flux-Residual
  Residual-Control   Outer-Iter.   Inner-Iter.     Column Row Layer    Maximum-Head-Change  Column Row Layer    Maximum-Flux-Residual          L2-NORM 
          0                 1           2             5    8     1       0.1229761712E+00       5    8    1         0.6658329335E+01      0.8827755865E+01
          0                 2           2             5    8     1       0.4859533034E-01       5    8    1         0.2691949296E+01      0.2753638855E+01
          0                 3           2             5    8     1       0.1920286687E-01       5    8    1         0.1057978056E+01      0.1058822785E+01
          0                 4           2             5    8     1       0.7588200351E-02       5    8    1         0.4184232137E+00      0.4184251977E+00
          0                 5           1             5    8     1       0.2998553536E-02       5    8    1         0.1653300303E+00      0.1653315196E+00
          0                 6           1             5    8     1       0.1184908882E-02       5    8    1         0.6533247002E-01      0.6533297587E-01
          0                 7           1             5    8     1       0.4682288325E-03       5    8    1         0.2581677486E-01      0.2581697790E-01
          0                 8           1             5    8     1       0.1850254084E-03       5    8    1         0.1020176463E-01      0.1020184469E-01
          0                 9           1             5    8     1       0.7311468255E-04       5    8    1         0.4031331835E-02      0.4031363468E-02

    ------------------------------------------------
       NWT REQUIRED            9 OUTER ITERATIONS 
       AND A TOTAL OF         13 INNER ITERATIONS.
    ------------------------------------------------

 NO OUTPUT CONTROL FOR STRESS PERIOD   35   TIME STEP   22
 
 SOLVING FOR HEAD 
                                                   Max.-Head-Change                         Max.-Flux-Residual
  Residual-Control   Outer-Iter.   Inner-Iter.     Column Row Layer    Maximum-Head-Change  Column Row Layer    Maximum-Flux-Residual          L2-NORM 
          0                 1           2             5    8     1       0.1124137418E+00       5    8    1         0.6070812183E+01      0.8470306889E+01
          0                 2           2             5    8     1       0.4220255303E-01       5    8    1         0.2343671783E+01      0.2487877391E+01
          0                 3           2             5    8     1       0.1889309924E-01       5    8    1         0.1037026311E+01      0.1086185824E+01
          0                 4           2             5    8     1       0.7465483976E-02       5    8    1         0.4118304952E+00      0.4120200496E+00
          0                 5           1             5    8     1       0.2949937815E-02       5    8    1         0.1626483689E+00      0.1626511579E+00
          0                 6           1             5    8     1       0.1165649251E-02       5    8    1         0.6427295226E-01      0.6427341560E-01
          0                 7           1             5    8     1       0.4605989741E-03       5    8    1         0.2539691902E-01      0.2539712035E-01
          0                 8           1             5    8     1       0.1820027976E-03       5    8    1         0.1003544029E-01      0.1003552012E-01
          0                 9           1             5    8     1       0.7191726605E-04       5    8    1         0.3965441400E-02      0.3965475056E-02

    ------------------------------------------------
       NWT REQUIRED            9 OUTER ITERATIONS 
       AND A TOTAL OF         13 INNER ITERATIONS.
    ------------------------------------------------

 NO OUTPUT CONTROL FOR STRESS PERIOD   35   TIME STEP   23
 
 SOLVING FOR HEAD 
                                                   Max.-Head-Change                         Max.-Flux-Residual
  Residual-Control   Outer-Iter.   Inner-Iter.     Column Row Layer    Maximum-Head-Change  Column Row Layer    Maximum-Flux-Residual          L2-NORM 
          0                 1           2             4    8     1       0.5714986177E-01       4    8    1         0.3064562238E+01      0.5996198267E+01
          0                 2           2             4    8     1      -0.5555232999E-02       4    8    1        -0.3062829770E+00      0.5997714666E+00
          0                 3           2             4    8     1       0.3783678701E-03       4    8    1         0.2144079599E-01      0.4198010946E-01
          0                 4           1             4    8     1      -0.1505314789E-04       4    8    1        -0.8768655166E-03      0.1717015064E-02

    ------------------------------------------------
       NWT REQUIRED            4 OUTER ITERATIONS 
       AND A TOTAL OF          7 INNER ITERATIONS.
    ------------------------------------------------

 NO OUTPUT CONTROL FOR STRESS PERIOD   35   TIME STEP   24
 
 SOLVING FOR HEAD 
                                                   Max.-Head-Change                         Max.-Flux-Residual
  Residual-Control   Outer-Iter.   Inner-Iter.     Column Row Layer    Maximum-Head-Change  Column Row Layer    Maximum-Flux-Residual          L2-NORM 
          0                 1           2             5    8     1      -0.7803391391E-01       5    8    1        -0.4430423727E+01      0.7339333316E+01
          0                 2           2             4    8     1      -0.7467330926E-02       4    8    1        -0.4159750719E+00      0.8903115140E+00
          0                 3           2             4    8     1       0.2643330406E-02       4    8    1         0.1482275878E+00      0.3368088387E+00
          0                 4           2             5    8     1      -0.1216468763E-03       5    8    1        -0.6895841406E-02      0.1492536130E-01
          0                 5           1             5    8     1       0.4841590005E-05       5    8    1         0.2877306663E-03      0.3392047298E-03

    ------------------------------------------------
       NWT REQUIRED            5 OUTER ITERATIONS 
       AND A TOTAL OF          9 INNER ITERATIONS.
    ------------------------------------------------

 NO OUTPUT CONTROL FOR STRESS PERIOD   35   TIME STEP   25
 
 SOLVING FOR HEAD 
                                                   Max.-Head-Change                         Max.-Flux-Residual
  Residual-Control   Outer-Iter.   Inner-Iter.     Column Row Layer    Maximum-Head-Change  Column Row Layer    Maximum-Flux-Residual          L2-NORM 
          0                 1           2             5    8     1      -0.7138987309E-01       5    8    1        -0.4055633018E+01      0.6936228419E+01
          0                 2           2             5    8     1       0.6943649452E-02       5    8    1         0.4055172405E+00      0.6935593119E+00
          0                 3           2             5    8     1      -0.4728387973E-03       5    8    1        -0.2838640509E-01      0.4854978304E-01
          0                 4           1             5    8     1       0.1881564439E-04       5    8    1         0.1161060369E-02      0.1985628134E-02

    ------------------------------------------------
       NWT REQUIRED            4 OUTER ITERATIONS 
       AND A TOTAL OF          7 INNER ITERATIONS.
    ------------------------------------------------

 NO OUTPUT CONTROL FOR STRESS PERIOD   35   TIME STEP   26
 
 SOLVING FOR HEAD 
                                                   Max.-Head-Change                         Max.-Flux-Residual
  Residual-Control   Outer-Iter.   Inner-Iter.     Column Row Layer    Maximum-Head-Change  Column Row Layer    Maximum-Flux-Residual          L2-NORM 
          0                 1           2             4    8     1       0.1113213764E+00       4    8    1         0.6056993487E+01      0.8527620992E+01
          0                 2           2             4    8     1       0.4262320552E-01       4    8    1         0.2314509480E+01      0.2427940750E+01
          0                 3           2             4    8     1       0.1944724774E-01       4    8    1         0.1051787961E+01      0.1094872643E+01
          0                 4           2             4    8     1       0.7841084820E-02       4    8    1         0.4256395276E+00      0.4258467095E+00
          0                 5           2             4    8     1       0.3161507607E-02       4    8    1         0.1715320311E+00      0.1715344011E+00
          0                 6           2             4    8     1       0.1274712817E-02       4    8    1         0.6916164226E-01      0.6916252851E-01
          0                 7           2             4    8     1       0.5139613851E-03       4    8    1         0.2788580678E-01      0.2788616822E-01
          0                 8           2             4    8     1       0.2072280958E-03       4    8    1         0.1124349642E-01      0.1124364213E-01
          0                 9           1             4    8     1       0.8355391119E-04       4    8    1         0.4533353098E-02      0.4533411846E-02

    ------------------------------------------------
       NWT REQUIRED            9 OUTER ITERATIONS 
       AND A TOTAL OF         17 INNER ITERATIONS.
    ------------------------------------------------

 NO OUTPUT CONTROL FOR STRESS PERIOD   35   TIME STEP   27
 
 SOLVING FOR HEAD 
                                                   Max.-Head-Change                         Max.-Flux-Residual
  Residual-Control   Outer-Iter.   Inner-Iter.     Column Row Layer    Maximum-Head-Change  Column Row Layer    Maximum-Flux-Residual          L2-NORM 
          0                 1           2             4    8     1       0.2263737520E+00       4    8    1         0.1229089706E+02      0.1354273024E+02
          0                 2           2             4    8     1       0.9127076416E-01       4    8    1         0.4951943926E+01      0.4984482598E+01
          0                 3           2             4    8     1       0.3679890594E-01       4    8    1         0.1996820493E+01      0.1997215140E+01
          0                 4           2             4    8     1       0.1483677928E-01       4    8    1         0.8050460246E+00      0.8050513066E+00
          0                 5           2             4    8     1       0.5981964076E-02       4    8    1         0.3245890129E+00      0.3245900071E+00
          0                 6           2             4    8     1       0.2411837523E-02       4    8    1         0.1308688811E+00      0.1308692985E+00
          0                 7           2             4    8     1       0.9724165171E-03       4    8    1         0.5276441446E-01      0.5276458016E-01
          0                 8           2             4    8     1       0.3920636872E-03       4    8    1         0.2127381543E-01      0.2127388241E-01
          0                 9           2             4    8     1       0.1580741729E-03       4    8    1         0.8577282536E-02      0.8577309516E-02
          0                10           1             4    8     1       0.6373312548E-04       4    8    1         0.3458231202E-02      0.3458242085E-02

    ------------------------------------------------
       NWT REQUIRED           10 OUTER ITERATIONS 
       AND A TOTAL OF         19 INNER ITERATIONS.
    ------------------------------------------------

 NO OUTPUT CONTROL FOR STRESS PERIOD   35   TIME STEP   28
 
 SOLVING FOR HEAD 
                                                   Max.-Head-Change                         Max.-Flux-Residual
  Residual-Control   Outer-Iter.   Inner-Iter.     Column Row Layer    Maximum-Head-Change  Column Row Layer    Maximum-Flux-Residual          L2-NORM 
          0                 1           2             4    8     1       0.2086799312E+00       4    8    1         0.1131635650E+02      0.1255188633E+02
          0                 2           2             4    8     1       0.8187018563E-01       4    8    1         0.4446622541E+01      0.4488428911E+01
          0                 3           2             4    8     1       0.3527232016E-01       4    8    1         0.1910413248E+01      0.1933839016E+01
          0                 4           2             4    8     1       0.1422100005E-01       4    8    1         0.7718447854E+00      0.7737658831E+00
          0                 5           2             4    8     1       0.5733586325E-02       4    8    1         0.3111028868E+00      0.3118156167E+00
          0                 6           2             4    8     1       0.2311652268E-02       4    8    1         0.1254350057E+00      0.1257141945E+00
          0                 7           2             4    8     1       0.9320055716E-03       4    8    1         0.5057225201E-01      0.5068176039E-01
          0                 8           2             4    8     1       0.3757632772E-03       4    8    1         0.2038960493E-01      0.2043256633E-01
          0                 9           2             4    8     1       0.1514990726E-03       4    8    1         0.8220620044E-02      0.8237478096E-02
          0                10           1             4    8     1       0.6108089983E-04       4    8    1         0.3314364161E-02      0.3320980732E-02

    ------------------------------------------------
       NWT REQUIRED           10 OUTER ITERATIONS 
       AND A TOTAL OF         19 INNER ITERATIONS.
    ------------------------------------------------

 NO OUTPUT CONTROL FOR STRESS PERIOD   35   TIME STEP   29
 
 SOLVING FOR HEAD 
                                                   Max.-Head-Change                         Max.-Flux-Residual
  Residual-Control   Outer-Iter.   Inner-Iter.     Column Row Layer    Maximum-Head-Change  Column Row Layer    Maximum-Flux-Residual          L2-NORM 
          0                 1           2             5    7     1       0.2238236387E+00       5    7    1         0.1230762295E+02      0.1682491818E+02
          0                 2           2             5    7     1       0.8834930101E-01       5    7    1         0.4880624070E+01      0.6465018497E+01
          0                 3           2             5    7     1       0.3487415413E-01       5    7    1         0.1924238094E+01      0.2566013874E+01
          0                 4           2             5    7     1       0.1376603673E-01       5    7    1         0.7596799903E+00      0.1022360397E+01
          0                 5           2             5    7     1       0.5433998459E-02       5    7    1         0.2998686616E+00      0.4074092050E+00
          0                 6           2             5    7     1       0.2145032973E-02       5    7    1         0.1183703300E+00      0.1623881657E+00
          0                 7           2             5    7     1       0.8467456133E-03       5    7    1         0.4672590995E-01      0.6473993877E-01
          0                 8           2             5    7     1       0.3342539349E-03       5    7    1         0.1844494764E-01      0.2581575585E-01
          0                 9           2             4    8     1       0.1341456171E-03       5    7    1         0.7281176875E-02      0.1029655486E-01
          0                10           1             4    8     1       0.5406963150E-04       4    8    1         0.2934458129E-02      0.4107650200E-02

    ------------------------------------------------
       NWT REQUIRED           10 OUTER ITERATIONS 
       AND A TOTAL OF         19 INNER ITERATIONS.
    ------------------------------------------------

 NO OUTPUT CONTROL FOR STRESS PERIOD   35   TIME STEP   30



 STREAM LISTING     PERIOD     35   STEP       30

 LAYER ROW COL. STREAM  RCH.  FLOW INTO     FLOW TO   FLOW OUT OF   OVRLND.     DIRECT     STREAM       STREAM     STREAM     STREAM   STREAMBED  STREAMBED
                SEG.NO.  NO.  STRM. RCH.    AQUIFER    STRM. RCH.    RUNOFF     PRECIP       ET          HEAD       DEPTH      WIDTH   CONDCTNC.   GRADIENT

   1    1    1     1     1    1.3125E+01  1.7336E-01   1.2951E+01  0.000E+00  0.000E+00  0.000E+00  1.09402E+03  9.718E-01  9.699E+00  4.365E-02  1.324E+00
   1    2    2     1     2    1.2951E+01  2.6707E-01   1.2684E+01  0.000E+00  0.000E+00  0.000E+00  1.08903E+03  9.671E-01  9.617E+00  6.732E-02  1.322E+00
   1    3    3     1     3    1.2684E+01  2.2640E-01   1.2458E+01  0.000E+00  0.000E+00  0.000E+00  1.08338E+03  9.616E-01  9.525E+00  5.715E-02  1.321E+00
   1    3    4     1     4    1.2458E+01  2.0736E-01   1.2250E+01  0.000E+00  0.000E+00  0.000E+00  1.07836E+03  9.568E-01  9.443E+00  5.241E-02  1.319E+00
   1    4    5     2     1    1.0250E+01  2.8870E-01   9.9617E+00  0.000E+00  0.000E+00  0.000E+00  1.07264E+03  7.013E-01  1.200E+01  7.800E-02  1.234E+00
   1    5    6     2     2    9.9617E+00  2.2144E-01   9.7403E+00  0.000E+00  0.000E+00  0.000E+00  1.06720E+03  6.906E-01  1.200E+01  6.000E-02  1.230E+00
   1    6    6     2     3    9.7403E+00  2.2088E-01   9.5194E+00  0.000E+00  0.000E+00  0.000E+00  1.06247E+03  6.813E-01  1.200E+01  6.000E-02  1.227E+00
   1    7    6     2     4    9.5194E+00  2.2031E-01   9.2991E+00  0.000E+00  0.000E+00  0.000E+00  1.05775E+03  6.719E-01  1.200E+01  6.000E-02  1.224E+00
   1    8    6     2     5    9.2991E+00  2.1974E-01   9.0793E+00  0.000E+00  0.000E+00  0.000E+00  1.05302E+03  6.624E-01  1.200E+01  6.000E-02  1.221E+00
   1    3    5     3     1    2.0000E+00  2.8252E-01   1.7175E+00  0.000E+00  0.000E+00  0.000E+00  1.07555E+03  1.909E+00  9.636E+00  7.227E-02  1.955E+00
   1    3    6     3     2    1.7175E+00  2.4905E-01   1.4684E+00  0.000E+00  0.000E+00  0.000E+00  1.07264E+03  1.727E+00  8.909E+00  6.682E-02  1.864E+00
   1    3    7     3     3    1.4684E+00  1.9718E-01   1.2712E+00  0.000E+00  0.000E+00  0.000E+00  1.06987E+03  1.555E+00  8.218E+00  5.547E-02  1.777E+00
   1    4    8     3     4    1.2712E+00  2.2567E-01   1.0456E+00  0.000E+00  0.000E+00  0.000E+00  1.06682E+03  1.364E+00  7.455E+00  6.709E-02  1.682E+00
   1    5    8     3     5    1.0456E+00  1.5790E-01   8.8768E-01  0.000E+00  0.000E+00  0.000E+00  1.06362E+03  1.164E+00  6.655E+00  4.991E-02  1.582E+00
   1    6    8     3     6    8.8768E-01  5.5980E-02   8.3170E-01  0.000E+00  0.000E+00  0.000E+00  1.06158E+03  1.036E+00  6.145E+00  1.844E-02  1.518E+00
   1    5   10     4     1    1.0000E+01  9.0919E-02   9.9091E+00  0.000E+00  0.000E+00  0.000E+00  1.07836E+03  6.368E-01  1.000E+01  2.500E-02  1.212E+00
   1    5    9     4     2    9.9091E+00  1.8158E-01   9.7275E+00  0.000E+00  0.000E+00  0.000E+00  1.07154E+03  6.315E-01  1.000E+01  5.000E-02  1.211E+00
   1    6    8     4     3    9.7275E+00  1.2689E-01   9.6006E+00  0.000E+00  0.000E+00  0.000E+00  1.06381E+03  6.256E-01  1.000E+01  3.500E-02  1.209E+00
   1    6    8     5     1    1.0432E+01  2.2686E-01   1.0205E+01  0.000E+00  0.000E+00  0.000E+00  1.05868E+03  6.790E-01  1.542E+01  6.166E-02  1.226E+00
   1    7    7     5     2    1.0205E+01  2.7894E-01   9.9265E+00  0.000E+00  0.000E+00  0.000E+00  1.05417E+03  6.732E-01  1.519E+01  7.594E-02  1.224E+00
   1    8    7     5     3    9.9265E+00  1.9221E-01   9.7343E+00  0.000E+00  0.000E+00  0.000E+00  1.04992E+03  6.676E-01  1.497E+01  5.241E-02  1.223E+00
   1    8    6     5     4    9.7343E+00  1.3577E-01   9.5985E+00  0.000E+00  0.000E+00  0.000E+00  1.04691E+03  6.637E-01  1.482E+01  3.706E-02  1.221E+00
   1    9    6     6     1    1.8678E+01  2.4127E-01   1.8437E+01  0.000E+00  0.000E+00  0.000E+00  1.04375E+03  1.021E+00  1.200E+01  6.000E-02  1.340E+00
   1   10    7     6     2    1.8437E+01  2.4079E-01   1.8196E+01  0.000E+00  0.000E+00  0.000E+00  1.03919E+03  1.013E+00  1.200E+01  6.000E-02  1.338E+00
   1   11    7     6     3    1.8196E+01  2.4031E-01   1.7956E+01  0.000E+00  0.000E+00  0.000E+00  1.03464E+03  1.005E+00  1.200E+01  6.000E-02  1.335E+00
   1   12    7     6     4    1.7956E+01  2.3983E-01   1.7716E+01  0.000E+00  0.000E+00  0.000E+00  1.03009E+03  9.971E-01  1.200E+01  6.000E-02  1.332E+00
   1   13    7     6     5    1.7716E+01  8.8012E-03   1.7707E+01  0.000E+00  0.000E+00  0.000E+00  1.02690E+03  9.929E-01  1.200E+01  2.400E-02  1.222E-01
   1   14    9     7     1    1.5000E+02  1.3910E+00   1.4861E+02  0.000E+00  0.000E+00  0.000E+00  1.03987E+03  2.288E+00  5.529E+01  5.593E-01  8.290E-01
   1   13    8     7     2    1.4861E+02  2.0095E+00   1.4660E+02  0.000E+00  0.000E+00  0.000E+00  1.03478E+03  2.279E+00  5.525E+01  6.147E-01  1.090E+00
   1   13    7     7     3    1.4660E+02  1.7602E+00   1.4484E+02  0.000E+00  0.000E+00  0.000E+00  1.02969E+03  2.268E+00  5.521E+01  5.584E-01  1.051E+00
   1   13    6     8     1    1.6255E+02  1.1599E+00   1.6139E+02  0.000E+00  0.000E+00  0.000E+00  1.02477E+03  2.899E+00  4.204E+01  4.284E-01  9.026E-01
   1   13    5     8     2    1.6139E+02  3.9920E-01   1.6099E+02  0.000E+00  0.000E+00  0.000E+00  1.01852E+03  2.894E+00  4.196E+01  4.276E-01  3.112E-01
   1   13    4     8     3    1.6099E+02 -1.6666E+00   1.6265E+02  0.000E+00  0.000E+00  0.000E+00  1.01227E+03  2.898E+00  4.202E+01  4.282E+00 -1.297E-01
   1   13    3     8     4    1.6265E+02 -3.2620E+00   1.6592E+02  0.000E+00  0.000E+00  0.000E+00  1.00604E+03  2.915E+00  4.226E+01  4.307E+00 -2.525E-01
   1   13    2     8     5    1.6592E+02 -2.4647E+00   1.6838E+02  0.000E+00  0.000E+00  0.000E+00  9.99809E+02  2.934E+00  4.254E+01  4.335E+00 -1.895E-01
   1   13    1     8     6    1.6838E+02 -1.9406E+00   1.7032E+02  0.000E+00  0.000E+00  0.000E+00  9.94823E+02  2.948E+00  4.275E+01  2.614E+00 -2.475E-01
   1    8    6     9     1    7.5343E-06  0.0000E+00   7.5343E-06  0.000E+00  0.000E+00  0.000E+00  1.07875E+03  4.803E-04  4.000E+00  0.000E+00  1.000E+00
   1    8    5     9     2    7.5343E-06  0.0000E+00   7.5343E-06  0.000E+00  0.000E+00  0.000E+00  1.07825E+03  4.803E-04  4.000E+00  0.000E+00  1.000E+00





UNSATURATED ZONE PACKAGE VOLUMETRIC BUDGET FOR  TIME STEP    30 STRESS PERIOD   35
  ------------------------------------------------------------------------------



     CUMULATIVE VOLUMES      L**3       RATES FOR THIS TIME STEP      L**3/T
     ------------------                 ------------------------

           IN:                                      IN:
           ---                                      ---
        INFILTRATION =  1542215511.7974          INFILTRATION =           0.8475

          OUT:                                     OUT:
          ----                                     ----
              UZF ET =  1280178481.9573                UZF ET =           1.5675
        UZF RECHARGE =    22750967.1062          UZF RECHARGE =          39.1217

            IN - OUT =   239286062.7339              IN - OUT =         -39.8417

          STORAGE:                                 STORAGE:
          --------                                 --------
      STORAGE CHANGE =   239287236.1473        STORAGE CHANGE =         -39.8417

 PERCENT DISCREPANCY IS DIFFERENCE BETWEEN IN-OUT MINUS CHANGE IN STORAGE
 DIVIDED BY THE AVERAGE OF IN AND OUT TIMES 100

 PERCENT DISCREPANCY =          -0.00     PERCENT DISCREPANCY =           0.00






1
  VOLUMETRIC BUDGET FOR AGRICULTURAL FIELDS AT  END OF TIME STEP   30, STRESS PERIOD  35
  ------------------------------------------------------------------------------

     CUMULATIVE VOLUMES      L**3       RATES FOR THIS TIME STEP      L**3/T
     ------------------                 ------------------------

           IN:                                      IN:
           ---                                      ---
               AG WELLS  =   964111616.0000                 AG WELLS  =           0.0000
      DIVERSION SEGMENTS =   502246304.0000        DIVERSION SEGMENTS =       7.5343E-06
           GW IRRIGATION =           0.0000             GW IRRIGATION =           0.0000
           SW IRRIGATION =           0.0000             SW IRRIGATION =           0.0000
        SYSTEM LOSSES GW =           0.0000          SYSTEM LOSSES GW =           0.0000
        SYSTEM LOSSES SW =           0.0000          SYSTEM LOSSES SW =           0.0000

                TOTAL IN =  1466357888.0000                  TOTAL IN =       7.5343E-06

          OUT:                                     OUT:
          ----                                     ----
               AG WELLS  =           0.0000                 AG WELLS  =           0.0000
      DIVERSION SEGMENTS =           0.0000        DIVERSION SEGMENTS =           0.0000
           GW IRRIGATION =   964111616.0000             GW IRRIGATION =           0.0000
           SW IRRIGATION =   502255776.0000             SW IRRIGATION =       7.5345E-06
        SYSTEM LOSSES GW =           0.0000          SYSTEM LOSSES GW =           0.0000
        SYSTEM LOSSES SW =           0.0000          SYSTEM LOSSES SW =           0.0000

               TOTAL OUT =  1466367360.0000                 TOTAL OUT =       7.5345E-06

                IN - OUT =       -9472.0000                  IN - OUT =      -1.5098E-10

     PERCENT DISCREPANCY =          -0.00         PERCENT DISCREPANCY =          -0.00



1
  VOLUMETRIC BUDGET FOR ENTIRE MODEL AT END OF TIME STEP   30, STRESS PERIOD  35
  ------------------------------------------------------------------------------

     CUMULATIVE VOLUMES      L**3       RATES FOR THIS TIME STEP      L**3/T
     ------------------                 ------------------------

           IN:                                      IN:
           ---                                      ---
             STORAGE     =  1395681664.0000               STORAGE     =           9.7519
       CONSTANT HEAD     =           0.0000         CONSTANT HEAD     =           0.0000
     HEAD DEP BOUNDS     =    25812440.0000       HEAD DEP BOUNDS     =           0.2895
      STREAM LEAKAGE     =  1066985024.0000        STREAM LEAKAGE     =          12.1375
        UZF RECHARGE     =    22750966.0000          UZF RECHARGE     =          39.1217
               GW ET     =           0.0000                 GW ET     =           0.0000
     SURFACE LEAKAGE     =           0.0000       SURFACE LEAKAGE     =           0.0000
           AG WELLS      =           0.0000             AG WELLS      =           0.0000

                TOTAL IN =  2511230208.0000                  TOTAL IN =          61.3006

          OUT:                                     OUT:
          ----                                     ----
             STORAGE     =   629480768.0000               STORAGE     =          51.6769
       CONSTANT HEAD     =           0.0000         CONSTANT HEAD     =           0.0000
     HEAD DEP BOUNDS     =    25775740.0000       HEAD DEP BOUNDS     =           0.2875
      STREAM LEAKAGE     =   891875392.0000        STREAM LEAKAGE     =           9.3339
        UZF RECHARGE     =           0.0000          UZF RECHARGE     =           0.0000
               GW ET     =           0.0000                 GW ET     =           0.0000
     SURFACE LEAKAGE     =           0.0000       SURFACE LEAKAGE     =           0.0000
           AG WELLS      =   964111616.0000             AG WELLS      =           0.0000

               TOTAL OUT =  2511243520.0000                 TOTAL OUT =          61.2983

                IN - OUT =      -13312.0000                  IN - OUT =       2.3346E-03

     PERCENT DISCREPANCY =          -0.00         PERCENT DISCREPANCY =           0.00






         TIME SUMMARY AT END OF TIME STEP   30 IN STRESS PERIOD   35
                    SECONDS     MINUTES      HOURS       DAYS        YEARS
                    -----------------------------------------------------------
   TIME STEP LENGTH  87667.      1461.1      24.352      1.0147     2.77799E-03
 STRESS PERIOD TIME 2.63000E+06  43833.      730.56      30.440     8.33397E-02
         TOTAL TIME 8.95061E+07 1.49177E+06  24863.      1036.0      2.8363    
1
1
                            STRESS PERIOD NO.   36, LENGTH =   2630000.    
                            -----------------------------------------------

                              NUMBER OF TIME STEPS =    30

                               MULTIPLIER FOR DELT =     1.000

                            INITIAL TIME STEP SIZE =   87666.66    

 REUSING NON-PARAMETER GHB CELLS FROM LAST STRESS PERIOD

      2 GHB CELLS

 REUSING STREAM SEGMENT DATA FROM LAST STRESS PERIOD



            AREAL INFILTRATION RATE
 READING ON UNIT   19 WITH FORMAT: (FREE)              

            1           2           3           4           5           6           7           8           9          10
 ........................................................................................................................
   1   1.0000E-10  2.0000E-10   0.000       0.000       0.000       0.000       0.000       0.000       0.000       0.000    
   2   2.0000E-10  1.0000E-10  2.0000E-10   0.000       0.000      8.0000E-10  8.0000E-10  5.0000E-10   0.000       0.000    
   3    0.000      5.0000E-10  1.0000E-10  1.0000E-10  8.0000E-10  8.0000E-10  5.0000E-10  5.0000E-10   0.000       0.000    
   4   8.0000E-10  5.0000E-10  1.0000E-10  1.0000E-10  1.0000E-10  1.0000E-10  1.0000E-10  1.0000E-10  2.0000E-10   0.000    
   5   8.0000E-10  5.0000E-10  1.0000E-10  1.0000E-10  1.0000E-10  1.0000E-10  1.0000E-10  1.0000E-10  1.0000E-10  1.0000E-10
   6   8.0000E-10  5.0000E-10  5.0000E-10  2.0000E-10  2.0000E-10  1.0000E-10  1.0000E-10  1.0000E-10  1.0000E-10  5.0000E-10
   7   8.0000E-10  5.0000E-10  5.0000E-10  2.0000E-10  2.0000E-10  1.0000E-10  1.0000E-10  2.0000E-10  2.0000E-10   0.000    
   8    0.000      5.0000E-10  5.0000E-10  2.0000E-10  2.0000E-10  1.0000E-10  1.0000E-10  2.0000E-10  5.0000E-10   0.000    
   9    0.000      5.0000E-10  5.0000E-10  2.0000E-10  2.0000E-10  1.0000E-10  1.0000E-10  2.0000E-10  5.0000E-10   0.000    
  10    0.000      5.0000E-10  5.0000E-10  2.0000E-10  2.0000E-10  1.0000E-10  1.0000E-10  2.0000E-10  5.0000E-10  8.0000E-10
  11    0.000      1.0000E-10  1.0000E-10  1.0000E-10  1.0000E-10  1.0000E-10  1.0000E-10  2.0000E-10  5.0000E-10   0.000    
  12   1.0000E-10  1.0000E-10  1.0000E-10  1.0000E-10  1.0000E-10  1.0000E-10  1.0000E-10  1.0000E-10  2.0000E-10   0.000    
  13   1.0000E-10  1.0000E-10  2.0000E-10  2.0000E-10  2.0000E-10  2.0000E-10  2.0000E-10  1.0000E-10  1.0000E-10   0.000    
  14    0.000      2.0000E-10  5.0000E-10  5.0000E-10  5.0000E-10  5.0000E-10  5.0000E-10  2.0000E-10  1.0000E-10   0.000    
  15    0.000       0.000      8.0000E-10  8.0000E-10  8.0000E-10  8.0000E-10   0.000       0.000       0.000       0.000    

                  ET RATE =  5.000000E-10

 USING ET EXTINCTION DEPTH FROM PREVIOUS STRESS PERIOD. CURRENT PERIOD IS:      36

 USING EXTINCTION WATER CONTENT FROM PREVIOUS STRESS PERIOD. CURRENT PERIOD IS:      36

 USING AIR ENTRY PRESSURE FROM PREVIOUS STRESS PERIOD. CURRENT PERIOD IS:      36

 USING ROOT PRESSURE HEAD FROM PREVIOUS STRESS PERIOD. CURRENT PERIOD IS:      36

 USING ROOT ACTIVITY FROM PREVIOUS STRESS PERIOD. CURRENT PERIOD IS:      36

 PROCESSING AG STRESS PERIOD DATA

 READING AG STRESS PERIOD DATA

 READING IRRIGATION SEGMENT

 READING IRRIGATION WELL

 READING SUPPLEMENTAL WELL

 END PROCESSING AG STRESS PERIOD DATA OPTIONS
 
 SOLVING FOR HEAD 
                                                   Max.-Head-Change                         Max.-Flux-Residual
  Residual-Control   Outer-Iter.   Inner-Iter.     Column Row Layer    Maximum-Head-Change  Column Row Layer    Maximum-Flux-Residual          L2-NORM 
          0                 1           2             5    7     1       0.2013831966E+00       5    7    1         0.1104322217E+02      0.1546441385E+02
          0                 2           2             5    7     1       0.7949019917E-01       5    7    1         0.4394344629E+01      0.5896391681E+01
          0                 3           2             5    7     1       0.3137673689E-01       5    7    1         0.1731067355E+01      0.2337380584E+01
          0                 4           2             5    7     1       0.1238531162E-01       5    7    1         0.6834774864E+00      0.9315629520E+00
          0                 5           2             5    7     1       0.4888895078E-02       5    7    1         0.2697837478E+00      0.3713166081E+00
          0                 6           2             5    7     1       0.1929830156E-02       5    7    1         0.1064929218E+00      0.1480390178E+00
          0                 7           2             4    8     1       0.7636793848E-03       5    7    1         0.4203681900E-01      0.5903402643E-01
          0                 8           2             4    8     1       0.3077992892E-03       4    8    1         0.1670536916E-01      0.2354630608E-01
          0                 9           2             4    8     1       0.1240565199E-03       4    8    1         0.6733054050E-02      0.9393715555E-02
          0                10           1             4    8     1       0.4999966353E-04       4    8    1         0.2713710704E-02      0.3748396960E-02

    ------------------------------------------------
       NWT REQUIRED           10 OUTER ITERATIONS 
       AND A TOTAL OF         19 INNER ITERATIONS.
    ------------------------------------------------

 NO OUTPUT CONTROL FOR STRESS PERIOD   36   TIME STEP    1
 
 SOLVING FOR HEAD 
                                                   Max.-Head-Change                         Max.-Flux-Residual
  Residual-Control   Outer-Iter.   Inner-Iter.     Column Row Layer    Maximum-Head-Change  Column Row Layer    Maximum-Flux-Residual          L2-NORM 
          0                 1           2             5    7     1       0.1817184339E+00       5    7    1         0.9935970705E+01      0.1433363133E+02
          0                 2           2             5    7     1       0.7172714682E-01       5    7    1         0.3968137693E+01      0.5394207451E+01
          0                 3           2             5    7     1       0.2831211752E-01       5    7    1         0.1561803084E+01      0.2134732853E+01
          0                 4           2             5    7     1       0.1115090761E-01       5    7    1         0.6157444376E+00      0.8503569015E+00
          0                 5           2             5    7     1       0.4398100884E-02       5    7    1         0.2428554691E+00      0.3389025072E+00
          0                 6           2             4    8     1       0.1755309676E-02       5    7    1         0.9578622407E-01      0.1350980350E+00
          0                 7           2             4    8     1       0.7074430492E-03       4    8    1         0.3839678790E-01      0.5386741143E-01
          0                 8           2             4    8     1       0.2851178685E-03       4    8    1         0.1547504921E-01      0.2148344439E-01
          0                 9           2             4    8     1       0.1149086433E-03       4    8    1         0.6236837882E-02      0.8570035515E-02
          0                10           1             4    8     1       0.4631016711E-04       4    8    1         0.2513576814E-02      0.3419493045E-02

    ------------------------------------------------
       NWT REQUIRED           10 OUTER ITERATIONS 
       AND A TOTAL OF         19 INNER ITERATIONS.
    ------------------------------------------------

 NO OUTPUT CONTROL FOR STRESS PERIOD   36   TIME STEP    2
 
 SOLVING FOR HEAD 
                                                   Max.-Head-Change                         Max.-Flux-Residual
  Residual-Control   Outer-Iter.   Inner-Iter.     Column Row Layer    Maximum-Head-Change  Column Row Layer    Maximum-Flux-Residual          L2-NORM 
          0                 1           2             5    7     1       0.1643435811E+00       5    7    1         0.8964185888E+01      0.1339606650E+02
          0                 2           2             5    7     1       0.6481425301E-01       5    7    1         0.3590824607E+01      0.4949151816E+01
          0                 3           2             5    7     1       0.2556186892E-01       5    7    1         0.1410890050E+01      0.1953737130E+01
          0                 4           2             5    7     1       0.1008140242E-01       5    7    1         0.5567452191E+00      0.7788181736E+00
          0                 5           2             4    8     1       0.4043558233E-02       5    7    1         0.2195656393E+00      0.3104528456E+00
          0                 6           2             4    8     1       0.1629597618E-02       4    8    1         0.8845306663E-01      0.1237865857E+00
          0                 7           2             4    8     1       0.6567382590E-03       4    8    1         0.3564749684E-01      0.4936869024E-01
          0                 8           2             4    8     1       0.2646668760E-03       4    8    1         0.1436614671E-01      0.1969384107E-01
          0                 9           1             4    8     1       0.1066601702E-03       4    8    1         0.5789578039E-02      0.7857958568E-02
          0                10           1             4    8     1       0.4298337759E-04       4    8    1         0.2333183924E-02      0.3136092874E-02

    ------------------------------------------------
       NWT REQUIRED           10 OUTER ITERATIONS 
       AND A TOTAL OF         18 INNER ITERATIONS.
    ------------------------------------------------

 NO OUTPUT CONTROL FOR STRESS PERIOD   36   TIME STEP    3
 
 SOLVING FOR HEAD 
                                                   Max.-Head-Change                         Max.-Flux-Residual
  Residual-Control   Outer-Iter.   Inner-Iter.     Column Row Layer    Maximum-Head-Change  Column Row Layer    Maximum-Flux-Residual          L2-NORM 
          0                 1           2             5    7     1       0.1490588636E+00       5    7    1         0.8104005457E+01      0.1261780967E+02
          0                 2           2             5    7     1       0.5876223144E-01       5    7    1         0.3259526612E+01      0.3436670690E+01
          0                 3           2             5    7     1       0.2316275780E-01       5    7    1         0.1278821874E+01      0.1279952933E+01
          0                 4           2             5    7     1       0.9129961240E-02       5    7    1         0.5044633899E+00      0.5044661825E+00
          0                 5           2             5    7     1       0.3598708566E-02       5    7    1         0.1988246015E+00      0.1988260430E+00
          0                 6           2             5    7     1       0.1418484078E-02       5    7    1         0.7837062095E-01      0.7837110053E-01
          0                 7           2             5    7     1       0.5591164950E-03       5    7    1         0.3089089492E-01      0.3089108702E-01
          0                 8           2             5    7     1       0.2203840543E-03       5    7    1         0.1217610982E-01      0.1217618538E-01
          0                 9           1             5    7     1       0.8686764353E-04       5    7    1         0.4799394222E-02      0.4799424019E-02

    ------------------------------------------------
       NWT REQUIRED            9 OUTER ITERATIONS 
       AND A TOTAL OF         17 INNER ITERATIONS.
    ------------------------------------------------

 NO OUTPUT CONTROL FOR STRESS PERIOD   36   TIME STEP    4
 
 SOLVING FOR HEAD 
                                                   Max.-Head-Change                         Max.-Flux-Residual
  Residual-Control   Outer-Iter.   Inner-Iter.     Column Row Layer    Maximum-Head-Change  Column Row Layer    Maximum-Flux-Residual          L2-NORM 
          0                 1           2             5    6     1       0.2061266813E+00       5    6    1         0.1121717166E+02      0.1481728954E+02
          0                 2           2             5    6     1       0.8246854801E-01       5    6    1         0.4506436613E+01      0.5468318905E+01
          0                 3           2             5    6     1       0.3300044604E-01       5    6    1         0.1801180729E+01      0.2178809408E+01
          0                 4           2             5    6     1       0.1320767515E-01       5    6    1         0.7209119075E+00      0.8756005234E+00
          0                 5           2             5    6     1       0.5286953792E-02       5    6    1         0.2885306165E+00      0.3518604280E+00
          0                 6           2             5    6     1       0.2116678979E-02       5    6    1         0.1155016369E+00      0.1414105145E+00
          0                 7           2             5    6     1       0.8475644291E-03       5    6    1         0.4624354979E-01      0.5683510349E-01
          0                 8           2             5    6     1       0.3394350290E-03       5    6    1         0.1851751112E-01      0.2284423954E-01
          0                 9           2             5    6     1       0.1359580192E-03       5    6    1         0.7416170192E-02      0.9182468881E-02
          0                10           1             5    6     1       0.5446472279E-04       5    6    1         0.2970575725E-02      0.3691164763E-02

    ------------------------------------------------
       NWT REQUIRED           10 OUTER ITERATIONS 
       AND A TOTAL OF         19 INNER ITERATIONS.
    ------------------------------------------------

 NO OUTPUT CONTROL FOR STRESS PERIOD   36   TIME STEP    5
 
 SOLVING FOR HEAD 
                                                   Max.-Head-Change                         Max.-Flux-Residual
  Residual-Control   Outer-Iter.   Inner-Iter.     Column Row Layer    Maximum-Head-Change  Column Row Layer    Maximum-Flux-Residual          L2-NORM 
          0                 1           2             5    6     1       0.2119948425E+00       5    6    1         0.1153538938E+02      0.1498035599E+02
          0                 2           2             5    6     1       0.8474547464E-01       5    6    1         0.4634835035E+01      0.5816663919E+01
          0                 3           2             5    6     1       0.3388648960E-01       5    6    1         0.1850509620E+01      0.2336914249E+01
          0                 4           2             5    6     1       0.1343151277E-01       5    6    1         0.7401311974E+00      0.8144644981E+00
          0                 5           2             5    6     1       0.5308285063E-02       5    6    1         0.2927059755E+00      0.3227482569E+00
          0                 6           2             5    6     1       0.2097411549E-02       5    6    1         0.1156607524E+00      0.1279402488E+00
          0                 7           2             5    6     1       0.8287191345E-03       5    6    1         0.4569926557E-01      0.5071832445E-01
          0                 8           2             5    6     1       0.3274409532E-03       5    6    1         0.1805647538E-01      0.2010772207E-01
          0                 9           2             5    6     1       0.1293782255E-03       5    6    1         0.7134424976E-02      0.7972662581E-02
          0                10           1             5    6     1       0.5112014162E-04       5    6    1         0.2818951492E-02      0.3161459048E-02

    ------------------------------------------------
       NWT REQUIRED           10 OUTER ITERATIONS 
       AND A TOTAL OF         19 INNER ITERATIONS.
    ------------------------------------------------

 NO OUTPUT CONTROL FOR STRESS PERIOD   36   TIME STEP    6
 
 SOLVING FOR HEAD 
                                                   Max.-Head-Change                         Max.-Flux-Residual
  Residual-Control   Outer-Iter.   Inner-Iter.     Column Row Layer    Maximum-Head-Change  Column Row Layer    Maximum-Flux-Residual          L2-NORM 
          0                 1           2             4    7     1       0.2629973399E+00       4    7    1         0.1435769238E+02      0.1872987771E+02
          0                 2           2             4    7     1       0.1056620128E+00       4    7    1         0.5745354059E+01      0.7122516004E+01
          0                 3           2             4    7     1       0.4245037510E-01       4    7    1         0.2310244345E+01      0.2837703854E+01
          0                 4           2             4    7     1       0.1705460118E-01       4    7    1         0.9279861535E+00      0.1133623398E+01
          0                 5           2             4    7     1       0.6851707259E-02       4    7    1         0.3728357882E+00      0.4530322435E+00
          0                 6           2             4    7     1       0.2752664399E-02       4    7    1         0.1497860992E+00      0.1810608177E+00
          0                 7           2             4    7     1       0.1105872362E-02       4    7    1         0.6017640134E-01      0.7237236158E-01
          0                 8           2             4    7     1       0.4442772328E-03       4    7    1         0.2417561579E-01      0.2893139918E-01
          0                 9           2             4    7     1       0.1784844856E-03       4    7    1         0.9712394183E-02      0.1156683439E-01
          0                10           1             4    7     1       0.7170414780E-04       4    7    1         0.3901866451E-02      0.4624958724E-02

    ------------------------------------------------
       NWT REQUIRED           10 OUTER ITERATIONS 
       AND A TOTAL OF         19 INNER ITERATIONS.
    ------------------------------------------------

 NO OUTPUT CONTROL FOR STRESS PERIOD   36   TIME STEP    7
 
 SOLVING FOR HEAD 
                                                   Max.-Head-Change                         Max.-Flux-Residual
  Residual-Control   Outer-Iter.   Inner-Iter.     Column Row Layer    Maximum-Head-Change  Column Row Layer    Maximum-Flux-Residual          L2-NORM 
          0                 1           2             4    7     1       0.2408057072E+00       4    7    1         0.1312213836E+02      0.1704627645E+02
          0                 2           2             4    7     1       0.9668907585E-01       4    7    1         0.5262853728E+01      0.6485936599E+01
          0                 3           2             4    7     1       0.3881838091E-01       4    7    1         0.2113583409E+01      0.2581175545E+01
          0                 4           2             4    7     1       0.1558457711E-01       4    7    1         0.8484743403E+00      0.1030875378E+01
          0                 5           2             4    7     1       0.6256767882E-02       4    7    1         0.3406494701E+00      0.4118142405E+00
          0                 6           2             4    7     1       0.2511900744E-02       4    7    1         0.1367603340E+00      0.1645254472E+00
          0                 7           2             4    7     1       0.1008445272E-02       4    7    1         0.5490511345E-01      0.6573737854E-01
          0                 8           2             4    7     1       0.4048551386E-03       4    7    1         0.2204257286E-01      0.2626853147E-01
          0                 9           1             4    7     1       0.1625340904E-03       4    7    1         0.8849308407E-02      0.1049791950E-01
          0                10           1             4    7     1       0.6525095124E-04       4    7    1         0.3552661628E-02      0.4195791831E-02

    ------------------------------------------------
       NWT REQUIRED           10 OUTER ITERATIONS 
       AND A TOTAL OF         18 INNER ITERATIONS.
    ------------------------------------------------

 NO OUTPUT CONTROL FOR STRESS PERIOD   36   TIME STEP    8
 
 SOLVING FOR HEAD 
                                                   Max.-Head-Change                         Max.-Flux-Residual
  Residual-Control   Outer-Iter.   Inner-Iter.     Column Row Layer    Maximum-Head-Change  Column Row Layer    Maximum-Flux-Residual          L2-NORM 
          0                 1           2             4    7     1       0.2206964077E+00       4    7    1         0.1200983771E+02      0.1561745128E+02
          0                 2           2             4    7     1       0.8860327968E-01       4    7    1         0.4825062380E+01      0.5919200532E+01
          0                 3           2             4    7     1       0.3557111643E-01       4    7    1         0.1936659053E+01      0.2353123155E+01
          0                 4           2             4    7     1       0.1428045314E-01       4    7    1         0.7775001350E+00      0.9399524307E+00
          0                 5           2             4    7     1       0.5733024330E-02       4    7    1         0.3121412927E+00      0.3754496147E+00
          0                 6           2             4    7     1       0.2301562445E-02       4    7    1         0.1253116527E+00      0.1499189175E+00
          0                 7           2             4    7     1       0.9239722301E-03       4    7    1         0.5030724799E-01      0.5987127151E-01
          0                 8           2             4    7     1       0.3709302762E-03       4    7    1         0.2019604693E-01      0.2391311142E-01
          0                 9           1             4    7     1       0.1489096643E-03       4    7    1         0.8107732983E-02      0.9552314771E-02
          0                10           1             4    7     1       0.5977929871E-04       4    7    1         0.3254840560E-02      0.3816234451E-02

    ------------------------------------------------
       NWT REQUIRED           10 OUTER ITERATIONS 
       AND A TOTAL OF         18 INNER ITERATIONS.
    ------------------------------------------------

 NO OUTPUT CONTROL FOR STRESS PERIOD   36   TIME STEP    9
 
 SOLVING FOR HEAD 
                                                   Max.-Head-Change                         Max.-Flux-Residual
  Residual-Control   Outer-Iter.   Inner-Iter.     Column Row Layer    Maximum-Head-Change  Column Row Layer    Maximum-Flux-Residual          L2-NORM 
          0                 1           2             4    7     1       0.2026500205E+00       4    7    1         0.1100628842E+02      0.1440817295E+02
          0                 2           2             4    7     1       0.8109551382E-01       4    7    1         0.4425455953E+01      0.5409001702E+01
          0                 3           2             4    7     1       0.3248900946E-01       4    7    1         0.1771666903E+01      0.2142822977E+01
          0                 4           2             4    7     1       0.1301591498E-01       4    7    1         0.7098412131E+00      0.8543275803E+00
          0                 5           2             4    7     1       0.5214476556E-02       4    7    1         0.2843813442E+00      0.3406292158E+00
          0                 6           2             4    7     1       0.2089026937E-02       4    7    1         0.1139295843E+00      0.1357961176E+00
          0                 7           2             4    7     1       0.8369019737E-03       4    7    1         0.4564255218E-01      0.5412394966E-01
          0                 8           2             4    7     1       0.3352759505E-03       4    7    1         0.1828521948E-01      0.2157472237E-01
          0                 9           1             4    7     1       0.1343159208E-03       4    7    1         0.7325338598E-02      0.8601122835E-02
          0                10           1             4    7     1       0.5380838514E-04       4    7    1         0.2934624115E-02      0.3429399824E-02

    ------------------------------------------------
       NWT REQUIRED           10 OUTER ITERATIONS 
       AND A TOTAL OF         18 INNER ITERATIONS.
    ------------------------------------------------

 NO OUTPUT CONTROL FOR STRESS PERIOD   36   TIME STEP   10
 
 SOLVING FOR HEAD 
                                                   Max.-Head-Change                         Max.-Flux-Residual
  Residual-Control   Outer-Iter.   Inner-Iter.     Column Row Layer    Maximum-Head-Change  Column Row Layer    Maximum-Flux-Residual          L2-NORM 
          0                 1           2             4    7     1       0.1857087538E+00       4    7    1         0.1008759288E+02      0.1166716296E+02
          0                 2           2             4    7     1       0.7436407668E-01       4    7    1         0.4061852431E+01      0.4097834032E+01
          0                 3           2             4    7     1       0.2977876503E-01       4    7    1         0.1624342259E+01      0.1624805284E+01
          0                 4           2             4    7     1       0.1192483776E-01       4    7    1         0.6505968065E+00      0.6505988002E+00
          0                 5           1             4    7     1       0.4775278555E-02       4    7    1         0.2605269125E+00      0.2605277196E+00
          0                 6           1             4    7     1       0.1872280466E-02       4    7    1         0.1021468058E+00      0.1021471103E+00
          0                 7           1             4    7     1       0.6344191732E-04       4    7    1         0.3458982975E-02      0.3460362426E-02

    ------------------------------------------------
       NWT REQUIRED            7 OUTER ITERATIONS 
       AND A TOTAL OF         11 INNER ITERATIONS.
    ------------------------------------------------

 NO OUTPUT CONTROL FOR STRESS PERIOD   36   TIME STEP   11
 
 SOLVING FOR HEAD 
                                                   Max.-Head-Change                         Max.-Flux-Residual
  Residual-Control   Outer-Iter.   Inner-Iter.     Column Row Layer    Maximum-Head-Change  Column Row Layer    Maximum-Flux-Residual          L2-NORM 
          0                 1           2             4    6     1       0.7342275910E-01       4    6    1         0.4050204033E+01      0.6103538121E+01
          0                 2           2             4    6     1      -0.7142134412E-02       4    6    1        -0.4050084981E+00      0.6100649196E+00
          0                 3           2             4    6     1       0.4863545169E-03       4    6    1         0.2835071926E-01      0.4270458042E-01
          0                 4           1             4    6     1      -0.1935249199E-04       4    6    1        -0.1159545517E-02      0.1746606705E-02

    ------------------------------------------------
       NWT REQUIRED            4 OUTER ITERATIONS 
       AND A TOTAL OF          7 INNER ITERATIONS.
    ------------------------------------------------

 NO OUTPUT CONTROL FOR STRESS PERIOD   36   TIME STEP   12
 
 SOLVING FOR HEAD 
                                                   Max.-Head-Change                         Max.-Flux-Residual
  Residual-Control   Outer-Iter.   Inner-Iter.     Column Row Layer    Maximum-Head-Change  Column Row Layer    Maximum-Flux-Residual          L2-NORM 
          0                 1           2             4    6     1       0.6922092434E-01       4    6    1         0.3814892712E+01      0.5727506921E+01
          0                 2           2             4    6     1      -0.6733006360E-02       4    6    1        -0.3814796126E+00      0.5726973893E+00
          0                 3           2             4    6     1       0.4583332981E-03       4    6    1         0.2670367612E-01      0.4056006059E-01
          0                 4           1             4    6     1      -0.1823750236E-04       4    6    1        -0.1092181406E-02      0.1658976089E-02

    ------------------------------------------------
       NWT REQUIRED            4 OUTER ITERATIONS 
       AND A TOTAL OF          7 INNER ITERATIONS.
    ------------------------------------------------

 NO OUTPUT CONTROL FOR STRESS PERIOD   36   TIME STEP   13
 
 SOLVING FOR HEAD 
                                                   Max.-Head-Change                         Max.-Flux-Residual
  Residual-Control   Outer-Iter.   Inner-Iter.     Column Row Layer    Maximum-Head-Change  Column Row Layer    Maximum-Flux-Residual          L2-NORM 
          0                 1           2             4    6     1       0.6532119018E-01       4    6    1         0.3596591727E+01      0.5383809253E+01
          0                 2           2             4    6     1      -0.6355331963E-02       4    6    1        -0.3596513857E+00      0.5342817294E+00
          0                 3           2             4    6     1       0.4327756021E-03       4    6    1         0.2517567887E-01      0.3739965334E-01
          0                 4           1             4    6     1      -0.1722053986E-04       4    6    1        -0.1029686365E-02      0.1529632839E-02

    ------------------------------------------------
       NWT REQUIRED            4 OUTER ITERATIONS 
       AND A TOTAL OF          7 INNER ITERATIONS.
    ------------------------------------------------

 NO OUTPUT CONTROL FOR STRESS PERIOD   36   TIME STEP   14
 
 SOLVING FOR HEAD 
                                                   Max.-Head-Change                         Max.-Flux-Residual
  Residual-Control   Outer-Iter.   Inner-Iter.     Column Row Layer    Maximum-Head-Change  Column Row Layer    Maximum-Flux-Residual          L2-NORM 
          0                 1           2             4    6     1       0.6169536625E-01       4    6    1         0.3393890868E+01      0.5073292191E+01
          0                 2           2             4    6     1      -0.6001186269E-02       4    6    1        -0.3393828024E+00      0.5073226212E+00
          0                 3           2             4    6     1       0.4086594222E-03       4    6    1         0.2375686589E-01      0.3551249731E-01
          0                 4           1             4    6     1      -0.1626093542E-04       4    6    1        -0.9716568875E-03      0.1452454043E-02

    ------------------------------------------------
       NWT REQUIRED            4 OUTER ITERATIONS 
       AND A TOTAL OF          7 INNER ITERATIONS.
    ------------------------------------------------

 NO OUTPUT CONTROL FOR STRESS PERIOD   36   TIME STEP   15
 
 SOLVING FOR HEAD 
                                                   Max.-Head-Change                         Max.-Flux-Residual
  Residual-Control   Outer-Iter.   Inner-Iter.     Column Row Layer    Maximum-Head-Change  Column Row Layer    Maximum-Flux-Residual          L2-NORM 
          0                 1           2             4    6     1       0.2273826318E+00       4    6    1         0.1242443189E+02      0.1292403260E+02
          0                 2           2             4    6     1       0.9111610763E-01       4    6    1         0.4966206206E+01      0.4978939456E+01
          0                 3           2             4    6     1       0.3651169755E-01       4    6    1         0.1991114476E+01      0.1991259920E+01
          0                 4           2             4    6     1       0.1463080206E-01       4    6    1         0.7977844566E+00      0.7977884612E+00
          0                 5           2             4    6     1       0.5862779600E-02       4    6    1         0.3196910097E+00      0.3196918016E+00
          0                 6           2             4    6     1       0.2349303282E-02       4    6    1         0.1281045549E+00      0.1281049011E+00
          0                 7           2             4    6     1       0.9414009592E-03       4    6    1         0.5133345235E-01      0.5133358856E-01
          0                 8           2             4    6     1       0.3772334551E-03       4    6    1         0.2057008252E-01      0.2057013725E-01
          0                 9           2             4    6     1       0.1511630933E-03       4    6    1         0.8242740537E-02      0.8242762444E-02
          0                10           1             4    6     1       0.6057331548E-04       4    6    1         0.3302989657E-02      0.3302998432E-02

    ------------------------------------------------
       NWT REQUIRED           10 OUTER ITERATIONS 
       AND A TOTAL OF         19 INNER ITERATIONS.
    ------------------------------------------------

 NO OUTPUT CONTROL FOR STRESS PERIOD   36   TIME STEP   16
 
 SOLVING FOR HEAD 
                                                   Max.-Head-Change                         Max.-Flux-Residual
  Residual-Control   Outer-Iter.   Inner-Iter.     Column Row Layer    Maximum-Head-Change  Column Row Layer    Maximum-Flux-Residual          L2-NORM 
          0                 1           2             4    6     1       0.2238430991E+00       4    6    1         0.1221470613E+02      0.1264741172E+02
          0                 2           2             4    6     1       0.8958998109E-01       4    6    1         0.4887435849E+01      0.4898412962E+01
          0                 3           2             4    6     1       0.3587405534E-01       4    6    1         0.1957350690E+01      0.1957483399E+01
          0                 4           2             4    6     1       0.1436488587E-01       4    6    1         0.7837376929E+00      0.7837409647E+00
          0                 5           2             4    6     1       0.5752069825E-02       4    6    1         0.3138330816E+00      0.3138339500E+00
          0                 6           2             4    6     1       0.2303277289E-02       4    6    1         0.1256666212E+00      0.1256669838E+00
          0                 7           2             4    6     1       0.9222917926E-03       4    6    1         0.5032020205E-01      0.5032034609E-01
          0                 8           2             4    6     1       0.3693095003E-03       4    6    1         0.2014951141E-01      0.2014957093E-01
          0                 9           2             4    6     1       0.1478810824E-03       4    6    1         0.8068386459E-02      0.8068409604E-02
          0                10           1             4    6     1       0.5921541373E-04       4    6    1         0.3230790895E-02      0.3230800158E-02

    ------------------------------------------------
       NWT REQUIRED           10 OUTER ITERATIONS 
       AND A TOTAL OF         19 INNER ITERATIONS.
    ------------------------------------------------

 NO OUTPUT CONTROL FOR STRESS PERIOD   36   TIME STEP   17
 
 SOLVING FOR HEAD 
                                                   Max.-Head-Change                         Max.-Flux-Residual
  Residual-Control   Outer-Iter.   Inner-Iter.     Column Row Layer    Maximum-Head-Change  Column Row Layer    Maximum-Flux-Residual          L2-NORM 
          0                 1           2             4    6     1       0.2043464106E+00       4    6    1         0.1114180189E+02      0.1157333938E+02
          0                 2           2             4    6     1       0.8182192074E-01       4    6    1         0.4465350121E+01      0.4476311958E+01
          0                 3           2             4    6     1       0.3276224558E-01       4    6    1         0.1787536413E+01      0.1787675249E+01
          0                 4           2             4    6     1       0.1311832099E-01       4    6    1         0.7157644767E+00      0.7157667085E+00
          0                 5           2             4    6     1       0.5252705925E-02       4    6    1         0.2865999840E+00      0.2866006865E+00
          0                 6           2             4    6     1       0.2103236058E-02       4    6    1         0.1147574897E+00      0.1147577738E+00
          0                 7           2             4    6     1       0.8421568571E-03       4    6    1         0.4595006840E-01      0.4595018146E-01
          0                 8           2             4    6     1       0.3372080820E-03       4    6    1         0.1839887133E-01      0.1839891664E-01
          0                 9           2             4    6     1       0.1350215121E-03       4    6    1         0.7367093723E-02      0.7367111853E-02
          0                10           1             4    6     1       0.5406397374E-04       4    6    1         0.2949858619E-02      0.2949865876E-02

    ------------------------------------------------
       NWT REQUIRED           10 OUTER ITERATIONS 
       AND A TOTAL OF         19 INNER ITERATIONS.
    ------------------------------------------------

 NO OUTPUT CONTROL FOR STRESS PERIOD   36   TIME STEP   18
 
 SOLVING FOR HEAD 
                                                   Max.-Head-Change                         Max.-Flux-Residual
  Residual-Control   Outer-Iter.   Inner-Iter.     Column Row Layer    Maximum-Head-Change  Column Row Layer    Maximum-Flux-Residual          L2-NORM 
          0                 1           2             4    6     1       0.1868386969E+00       4    6    1         0.1017303020E+02      0.1063295006E+02
          0                 2           2             4    6     1       0.7480899089E-01       4    6    1         0.4084200004E+01      0.4095896759E+01
          0                 3           2             4    6     1       0.2443533544E-01       4    6    1         0.1333117970E+01      0.1333307802E+01
          0                 4           2             4    6     1       0.8276260283E-03       4    6    1         0.4514299245E-01      0.4516196049E-01
          0                 5           1             4    6     1       0.2803258830E-04       4    6    1         0.1529436129E-02      0.1530747845E-02

    ------------------------------------------------
       NWT REQUIRED            5 OUTER ITERATIONS 
       AND A TOTAL OF          9 INNER ITERATIONS.
    ------------------------------------------------

 NO OUTPUT CONTROL FOR STRESS PERIOD   36   TIME STEP   19
 
 SOLVING FOR HEAD 
                                                   Max.-Head-Change                         Max.-Flux-Residual
  Residual-Control   Outer-Iter.   Inner-Iter.     Column Row Layer    Maximum-Head-Change  Column Row Layer    Maximum-Flux-Residual          L2-NORM 
          0                 1           2             4    5     1       0.3172999942E-01       4    5    1         0.1724344363E+01      0.3204498147E+01
          0                 2           2             4    5     1      -0.3086644080E-02       4    5    1        -0.1724379842E+00      0.3203342798E+00
          0                 3           2             4    5     1       0.2101885152E-03       4    5    1         0.1207063059E-01      0.2242322525E-01
          0                 4           1             4    5     1      -0.8363600181E-05       4    5    1        -0.4936896321E-03      0.9171015262E-03

    ------------------------------------------------
       NWT REQUIRED            4 OUTER ITERATIONS 
       AND A TOTAL OF          7 INNER ITERATIONS.
    ------------------------------------------------

 NO OUTPUT CONTROL FOR STRESS PERIOD   36   TIME STEP   20
 
 SOLVING FOR HEAD 
                                                   Max.-Head-Change                         Max.-Flux-Residual
  Residual-Control   Outer-Iter.   Inner-Iter.     Column Row Layer    Maximum-Head-Change  Column Row Layer    Maximum-Flux-Residual          L2-NORM 
          0                 1           2             4    5     1       0.3035357216E-01       4    5    1         0.1648629069E+01      0.3085021161E+01
          0                 2           2             4    5     1      -0.2952621869E-02       4    5    1        -0.1648661400E+00      0.3085036001E+00
          0                 3           2             4    5     1       0.2010621438E-03       4    5    1         0.1154060420E-01      0.2159509149E-01
          0                 4           1             4    5     1      -0.8000453997E-05       4    5    1        -0.4720115116E-03      0.8832326873E-03

    ------------------------------------------------
       NWT REQUIRED            4 OUTER ITERATIONS 
       AND A TOTAL OF          7 INNER ITERATIONS.
    ------------------------------------------------

 NO OUTPUT CONTROL FOR STRESS PERIOD   36   TIME STEP   21
 
 SOLVING FOR HEAD 
                                                   Max.-Head-Change                         Max.-Flux-Residual
  Residual-Control   Outer-Iter.   Inner-Iter.     Column Row Layer    Maximum-Head-Change  Column Row Layer    Maximum-Flux-Residual          L2-NORM 
          0                 1           2             4    5     1       0.2905344290E-01       4    5    1         0.1577122975E+01      0.2973818176E+01
          0                 2           2             4    5     1      -0.2826150590E-02       4    5    1        -0.1577152456E+00      0.2973830798E+00
          0                 3           2             4    5     1       0.1924499590E-03       4    5    1         0.1104004406E-01      0.2081665917E-01
          0                 4           1             4    5     1      -0.7657767254E-05       4    5    1        -0.4515385594E-03      0.8513982976E-03

    ------------------------------------------------
       NWT REQUIRED            4 OUTER ITERATIONS 
       AND A TOTAL OF          7 INNER ITERATIONS.
    ------------------------------------------------

 NO OUTPUT CONTROL FOR STRESS PERIOD   36   TIME STEP   22
 
 SOLVING FOR HEAD 
                                                   Max.-Head-Change                         Max.-Flux-Residual
  Residual-Control   Outer-Iter.   Inner-Iter.     Column Row Layer    Maximum-Head-Change  Column Row Layer    Maximum-Flux-Residual          L2-NORM 
          0                 1           2             4    5     1       0.2782491756E-01       4    5    1         0.1509573295E+01      0.2870380658E+01
          0                 2           2             4    5     1      -0.2706464818E-02       4    5    1        -0.1509600198E+00      0.2828277892E+00
          0                 3           2             4    5     1       0.1843009040E-03       4    5    1         0.1056718044E-01      0.1979736029E-01
          0                 4           1             4    5     1      -0.7333473757E-05       4    5    1        -0.4321983938E-03      0.8097043444E-03

    ------------------------------------------------
       NWT REQUIRED            4 OUTER ITERATIONS 
       AND A TOTAL OF          7 INNER ITERATIONS.
    ------------------------------------------------

 NO OUTPUT CONTROL FOR STRESS PERIOD   36   TIME STEP   23
 
 SOLVING FOR HEAD 
                                                   Max.-Head-Change                         Max.-Flux-Residual
  Residual-Control   Outer-Iter.   Inner-Iter.     Column Row Layer    Maximum-Head-Change  Column Row Layer    Maximum-Flux-Residual          L2-NORM 
          0                 1           2             4    5     1       0.2666408240E-01       4    5    1         0.1445753171E+01      0.2773745827E+01
          0                 2           2             4    5     1      -0.2593506265E-02       4    5    1        -0.1445777735E+00      0.2739336781E+00
          0                 3           2             4    5     1       0.1766149834E-03       4    5    1         0.1012042521E-01      0.1915127507E-01
          0                 4           1             4    5     1      -0.7027443297E-05       4    5    1        -0.4139260891E-03      0.7832238101E-03

    ------------------------------------------------
       NWT REQUIRED            4 OUTER ITERATIONS 
       AND A TOTAL OF          7 INNER ITERATIONS.
    ------------------------------------------------

 NO OUTPUT CONTROL FOR STRESS PERIOD   36   TIME STEP   24
 
 SOLVING FOR HEAD 
                                                   Max.-Head-Change                         Max.-Flux-Residual
  Residual-Control   Outer-Iter.   Inner-Iter.     Column Row Layer    Maximum-Head-Change  Column Row Layer    Maximum-Flux-Residual          L2-NORM 
          0                 1           2             4    5     1       0.2556669194E-01       4    5    1         0.1385435384E+01      0.2683677689E+01
          0                 2           2             4    5     1      -0.2486768779E-02       4    5    1        -0.1385457830E+00      0.2652156095E+00
          0                 3           2             4    5     1       0.1693461981E-03       4    5    1         0.9698187694E-02      0.1854234069E-01
          0                 4           1             4    5     1      -0.6738224575E-05       4    5    1        -0.3966565259E-03      0.7587882147E-03

    ------------------------------------------------
       NWT REQUIRED            4 OUTER ITERATIONS 
       AND A TOTAL OF          7 INNER ITERATIONS.
    ------------------------------------------------

 NO OUTPUT CONTROL FOR STRESS PERIOD   36   TIME STEP   25
 
 SOLVING FOR HEAD 
                                                   Max.-Head-Change                         Max.-Flux-Residual
  Residual-Control   Outer-Iter.   Inner-Iter.     Column Row Layer    Maximum-Head-Change  Column Row Layer    Maximum-Flux-Residual          L2-NORM 
          0                 1           2             4    5     1       0.2452906592E-01       4    5    1         0.1328418793E+01      0.2599923591E+01
          0                 2           2             4    5     1      -0.2385843797E-02       4    5    1        -0.1328439320E+00      0.2570915693E+00
          0                 3           2             4    5     1       0.1624732614E-03       4    5    1         0.9299059776E-02      0.1797465355E-01
          0                 4           1             4    5     1      -0.6464755769E-05       4    5    1        -0.3803321661E-03      0.7351248366E-03

    ------------------------------------------------
       NWT REQUIRED            4 OUTER ITERATIONS 
       AND A TOTAL OF          7 INNER ITERATIONS.
    ------------------------------------------------

 NO OUTPUT CONTROL FOR STRESS PERIOD   36   TIME STEP   26
 
 SOLVING FOR HEAD 
                                                   Max.-Head-Change                         Max.-Flux-Residual
  Residual-Control   Outer-Iter.   Inner-Iter.     Column Row Layer    Maximum-Head-Change  Column Row Layer    Maximum-Flux-Residual          L2-NORM 
          0                 1           2             4    5     1       0.2354755150E-01       4    5    1         0.1274500981E+01      0.2522000097E+01
          0                 2           2             4    5     1      -0.2290376070E-02       4    5    1        -0.1274519768E+00      0.2495175002E+00
          0                 3           2             4    5     1       0.1559719783E-03       4    5    1         0.8921624401E-02      0.1744538506E-01
          0                 4           1             4    5     1      -0.6206074412E-05       4    5    1        -0.3648950349E-03      0.7134853053E-03

    ------------------------------------------------
       NWT REQUIRED            4 OUTER ITERATIONS 
       AND A TOTAL OF          7 INNER ITERATIONS.
    ------------------------------------------------

 NO OUTPUT CONTROL FOR STRESS PERIOD   36   TIME STEP   27
 
 SOLVING FOR HEAD 
                                                   Max.-Head-Change                         Max.-Flux-Residual
  Residual-Control   Outer-Iter.   Inner-Iter.     Column Row Layer    Maximum-Head-Change  Column Row Layer    Maximum-Flux-Residual          L2-NORM 
          0                 1           2             4    5     1       0.2261900137E-01       4    5    1         0.1223507215E+01      0.2449465975E+01
          0                 2           2             4    5     1      -0.2200059538E-02       4    5    1        -0.1223524424E+00      0.2424535160E+00
          0                 3           2             4    5     1       0.1498215037E-03       4    5    1         0.8564658330E-02      0.1695169890E-01
          0                 4           1             4    5     1      -0.5961350435E-05       4    5    1        -0.3502950869E-03      0.6932694323E-03

    ------------------------------------------------
       NWT REQUIRED            4 OUTER ITERATIONS 
       AND A TOTAL OF          7 INNER ITERATIONS.
    ------------------------------------------------

 NO OUTPUT CONTROL FOR STRESS PERIOD   36   TIME STEP   28
 
 SOLVING FOR HEAD 
                                                   Max.-Head-Change                         Max.-Flux-Residual
  Residual-Control   Outer-Iter.   Inner-Iter.     Column Row Layer    Maximum-Head-Change  Column Row Layer    Maximum-Flux-Residual          L2-NORM 
          0                 1           2             4    5     1       0.2174020571E-01       4    5    1         0.1175259639E+01      0.2381900125E+01
          0                 2           2             4    5     1      -0.2114582036E-02       4    5    1        -0.1175275416E+00      0.2358608279E+00
          0                 3           2             4    5     1       0.1440005779E-03       4    5    1         0.8226916481E-02      0.1649088280E-01
          0                 4           1             4    5     1      -0.5729738686E-05       4    5    1        -0.3364814261E-03      0.6744562964E-03

    ------------------------------------------------
       NWT REQUIRED            4 OUTER ITERATIONS 
       AND A TOTAL OF          7 INNER ITERATIONS.
    ------------------------------------------------

 NO OUTPUT CONTROL FOR STRESS PERIOD   36   TIME STEP   29
 
 SOLVING FOR HEAD 
                                                   Max.-Head-Change                         Max.-Flux-Residual
  Residual-Control   Outer-Iter.   Inner-Iter.     Column Row Layer    Maximum-Head-Change  Column Row Layer    Maximum-Flux-Residual          L2-NORM 
          0                 1           2             4    5     1       0.2090816133E-01       4    5    1         0.1129591824E+01      0.2318921147E+01
          0                 2           2             4    5     1      -0.2033651503E-02       4    5    1        -0.1129606299E+00      0.2297044286E+00
          0                 3           2             4    5     1       0.1384893102E-03       4    5    1         0.7907233772E-02      0.1606050165E-01
          0                 4           1             4    5     1      -0.5510447662E-05       4    5    1        -0.3234063768E-03      0.6568606959E-03

    ------------------------------------------------
       NWT REQUIRED            4 OUTER ITERATIONS 
       AND A TOTAL OF          7 INNER ITERATIONS.
    ------------------------------------------------

 NO OUTPUT CONTROL FOR STRESS PERIOD   36   TIME STEP   30



 STREAM LISTING     PERIOD     36   STEP       30

 LAYER ROW COL. STREAM  RCH.  FLOW INTO     FLOW TO   FLOW OUT OF   OVRLND.     DIRECT     STREAM       STREAM     STREAM     STREAM   STREAMBED  STREAMBED
                SEG.NO.  NO.  STRM. RCH.    AQUIFER    STRM. RCH.    RUNOFF     PRECIP       ET          HEAD       DEPTH      WIDTH   CONDCTNC.   GRADIENT

   1    1    1     1     1    9.7497E+00  1.4616E-01   9.6035E+00  0.000E+00  0.000E+00  0.000E+00  1.09394E+03  8.903E-01  8.349E+00  3.757E-02  1.297E+00
   1    2    2     1     2    9.6035E+00  2.2466E-01   9.3789E+00  0.000E+00  0.000E+00  0.000E+00  1.08894E+03  8.846E-01  8.262E+00  5.783E-02  1.295E+00
   1    3    3     1     3    9.3789E+00  1.8995E-01   9.1889E+00  0.000E+00  0.000E+00  0.000E+00  1.08330E+03  8.782E-01  8.163E+00  4.898E-02  1.293E+00
   1    3    4     1     4    9.1889E+00  1.7356E-01   9.0154E+00  0.000E+00  0.000E+00  0.000E+00  1.07828E+03  8.725E-01  8.076E+00  4.482E-02  1.291E+00
   1    4    5     2     1    7.0154E+00  2.7742E-01   6.7380E+00  0.000E+00  0.000E+00  0.000E+00  1.07249E+03  5.566E-01  1.200E+01  7.800E-02  1.186E+00
   1    5    6     2     2    6.7380E+00  2.1268E-01   6.5253E+00  0.000E+00  0.000E+00  0.000E+00  1.06705E+03  5.446E-01  1.200E+01  6.000E-02  1.182E+00
   1    6    6     2     3    6.5253E+00  2.1205E-01   6.3132E+00  0.000E+00  0.000E+00  0.000E+00  1.06233E+03  5.341E-01  1.200E+01  6.000E-02  1.178E+00
   1    7    6     2     4    6.3132E+00  2.1141E-01   6.1018E+00  0.000E+00  0.000E+00  0.000E+00  1.05760E+03  5.235E-01  1.200E+01  6.000E-02  1.174E+00
   1    8    6     2     5    6.1018E+00  2.1076E-01   5.8911E+00  0.000E+00  0.000E+00  0.000E+00  1.05287E+03  5.127E-01  1.200E+01  6.000E-02  1.171E+00
   1    3    5     3     1    2.0000E+00  2.8252E-01   1.7175E+00  0.000E+00  0.000E+00  0.000E+00  1.07555E+03  1.909E+00  9.636E+00  7.227E-02  1.955E+00
   1    3    6     3     2    1.7175E+00  2.4905E-01   1.4684E+00  0.000E+00  0.000E+00  0.000E+00  1.07264E+03  1.727E+00  8.909E+00  6.682E-02  1.864E+00
   1    3    7     3     3    1.4684E+00  1.9718E-01   1.2712E+00  0.000E+00  0.000E+00  0.000E+00  1.06987E+03  1.555E+00  8.218E+00  5.547E-02  1.777E+00
   1    4    8     3     4    1.2712E+00  2.2567E-01   1.0456E+00  0.000E+00  0.000E+00  0.000E+00  1.06682E+03  1.364E+00  7.455E+00  6.709E-02  1.682E+00
   1    5    8     3     5    1.0456E+00  1.5790E-01   8.8768E-01  0.000E+00  0.000E+00  0.000E+00  1.06362E+03  1.164E+00  6.655E+00  4.991E-02  1.582E+00
   1    6    8     3     6    8.8768E-01  5.5980E-02   8.3170E-01  0.000E+00  0.000E+00  0.000E+00  1.06158E+03  1.036E+00  6.145E+00  1.844E-02  1.518E+00
   1    5   10     4     1    1.0000E+01  9.0919E-02   9.9091E+00  0.000E+00  0.000E+00  0.000E+00  1.07836E+03  6.368E-01  1.000E+01  2.500E-02  1.212E+00
   1    5    9     4     2    9.9091E+00  1.8158E-01   9.7275E+00  0.000E+00  0.000E+00  0.000E+00  1.07154E+03  6.315E-01  1.000E+01  5.000E-02  1.211E+00
   1    6    8     4     3    9.7275E+00  1.2689E-01   9.6006E+00  0.000E+00  0.000E+00  0.000E+00  1.06381E+03  6.256E-01  1.000E+01  3.500E-02  1.209E+00
   1    6    8     5     1    1.0432E+01  2.2686E-01   1.0205E+01  0.000E+00  0.000E+00  0.000E+00  1.05868E+03  6.790E-01  1.542E+01  6.166E-02  1.226E+00
   1    7    7     5     2    1.0205E+01  2.7894E-01   9.9265E+00  0.000E+00  0.000E+00  0.000E+00  1.05417E+03  6.732E-01  1.519E+01  7.594E-02  1.224E+00
   1    8    7     5     3    9.9265E+00  1.9221E-01   9.7343E+00  0.000E+00  0.000E+00  0.000E+00  1.04992E+03  6.676E-01  1.497E+01  5.241E-02  1.223E+00
   1    8    6     5     4    9.7343E+00  1.3577E-01   9.5985E+00  0.000E+00  0.000E+00  0.000E+00  1.04691E+03  6.637E-01  1.482E+01  3.706E-02  1.221E+00
   1    9    6     6     1    1.5490E+01  2.3472E-01   1.5255E+01  0.000E+00  0.000E+00  0.000E+00  1.04364E+03  9.120E-01  1.200E+01  6.000E-02  1.304E+00
   1   10    7     6     2    1.5255E+01  2.3422E-01   1.5021E+01  0.000E+00  0.000E+00  0.000E+00  1.03909E+03  9.037E-01  1.200E+01  6.000E-02  1.301E+00
   1   11    7     6     3    1.5021E+01  2.3372E-01   1.4787E+01  0.000E+00  0.000E+00  0.000E+00  1.03453E+03  8.953E-01  1.200E+01  6.000E-02  1.298E+00
   1   12    7     6     4    1.4787E+01  2.3321E-01   1.4554E+01  0.000E+00  0.000E+00  0.000E+00  1.02998E+03  8.868E-01  1.200E+01  6.000E-02  1.296E+00
   1   13    7     6     5    1.4554E+01  6.4439E-03   1.4547E+01  0.000E+00  0.000E+00  0.000E+00  1.02679E+03  8.825E-01  1.200E+01  2.400E-02  8.950E-02
   1   14    9     7     1    1.5000E+02  1.3924E+00   1.4861E+02  0.000E+00  0.000E+00  0.000E+00  1.03987E+03  2.288E+00  5.529E+01  5.593E-01  8.299E-01
   1   13    8     7     2    1.4861E+02  2.0131E+00   1.4659E+02  0.000E+00  0.000E+00  0.000E+00  1.03478E+03  2.279E+00  5.525E+01  6.147E-01  1.092E+00
   1   13    7     7     3    1.4659E+02  1.7670E+00   1.4483E+02  0.000E+00  0.000E+00  0.000E+00  1.02969E+03  2.268E+00  5.521E+01  5.584E-01  1.055E+00
   1   13    6     8     1    1.5937E+02  1.1508E+00   1.5822E+02  0.000E+00  0.000E+00  0.000E+00  1.02475E+03  2.878E+00  4.173E+01  4.252E-01  9.022E-01
   1   13    5     8     2    1.5822E+02  3.9633E-01   1.5783E+02  0.000E+00  0.000E+00  0.000E+00  1.01850E+03  2.872E+00  4.165E+01  4.244E-01  3.113E-01
   1   13    4     8     3    1.5783E+02 -1.6729E+00   1.5950E+02  0.000E+00  0.000E+00  0.000E+00  1.01225E+03  2.877E+00  4.171E+01  4.251E+00 -1.312E-01
   1   13    3     8     4    1.5950E+02 -3.2758E+00   1.6278E+02  0.000E+00  0.000E+00  0.000E+00  1.00602E+03  2.894E+00  4.196E+01  4.275E+00 -2.554E-01
   1   13    2     8     5    1.6278E+02 -2.4902E+00   1.6527E+02  0.000E+00  0.000E+00  0.000E+00  9.99788E+02  2.913E+00  4.224E+01  4.304E+00 -1.929E-01
   1   13    1     8     6    1.6527E+02 -1.9626E+00   1.6723E+02  0.000E+00  0.000E+00  0.000E+00  9.94803E+02  2.928E+00  4.245E+01  2.595E+00 -2.520E-01
   1    8    6     9     1    0.0000E+00  0.0000E+00   0.0000E+00  0.000E+00  0.000E+00  0.000E+00  1.07875E+03  0.000E+00  4.000E+00  0.000E+00  1.000E+00
   1    8    5     9     2    0.0000E+00  0.0000E+00   0.0000E+00  0.000E+00  0.000E+00  0.000E+00  1.07825E+03  0.000E+00  4.000E+00  0.000E+00  1.000E+00





UNSATURATED ZONE PACKAGE VOLUMETRIC BUDGET FOR  TIME STEP    30 STRESS PERIOD   36
  ------------------------------------------------------------------------------



     CUMULATIVE VOLUMES      L**3       RATES FOR THIS TIME STEP      L**3/T
     ------------------                 ------------------------

           IN:                                      IN:
           ---                                      ---
        INFILTRATION =  1544444436.6702          INFILTRATION =           0.8475

          OUT:                                     OUT:
          ----                                     ----
              UZF ET =  1282151123.6346                UZF ET =           0.7500
        UZF RECHARGE =    63058609.1731          UZF RECHARGE =           0.0485

            IN - OUT =   199234703.8625              IN - OUT =       4.8993E-02

          STORAGE:                                 STORAGE:
          --------                                 --------
      STORAGE CHANGE =   199235877.1370        STORAGE CHANGE =       4.8993E-02

 PERCENT DISCREPANCY IS DIFFERENCE BETWEEN IN-OUT MINUS CHANGE IN STORAGE
 DIVIDED BY THE AVERAGE OF IN AND OUT TIMES 100

 PERCENT DISCREPANCY =          -0.00     PERCENT DISCREPANCY =           0.00






1
  VOLUMETRIC BUDGET FOR AGRICULTURAL FIELDS AT  END OF TIME STEP   30, STRESS PERIOD  36
  ------------------------------------------------------------------------------

     CUMULATIVE VOLUMES      L**3       RATES FOR THIS TIME STEP      L**3/T
     ------------------                 ------------------------

           IN:                                      IN:
           ---                                      ---
               AG WELLS  =   964111616.0000                 AG WELLS  =           0.0000
      DIVERSION SEGMENTS =   502246304.0000        DIVERSION SEGMENTS =           0.0000
           GW IRRIGATION =           0.0000             GW IRRIGATION =           0.0000
           SW IRRIGATION =           0.0000             SW IRRIGATION =           0.0000
        SYSTEM LOSSES GW =           0.0000          SYSTEM LOSSES GW =           0.0000
        SYSTEM LOSSES SW =           0.0000          SYSTEM LOSSES SW =           0.0000

                TOTAL IN =  1466357888.0000                  TOTAL IN =           0.0000

          OUT:                                     OUT:
          ----                                     ----
               AG WELLS  =           0.0000                 AG WELLS  =           0.0000
      DIVERSION SEGMENTS =           0.0000        DIVERSION SEGMENTS =           0.0000
           GW IRRIGATION =   964111616.0000             GW IRRIGATION =           0.0000
           SW IRRIGATION =   502255776.0000             SW IRRIGATION =           0.0000
        SYSTEM LOSSES GW =           0.0000          SYSTEM LOSSES GW =           0.0000
        SYSTEM LOSSES SW =           0.0000          SYSTEM LOSSES SW =           0.0000

               TOTAL OUT =  1466367360.0000                 TOTAL OUT =           0.0000

                IN - OUT =       -9472.0000                  IN - OUT =           0.0000

     PERCENT DISCREPANCY =          -0.00         PERCENT DISCREPANCY =           0.00



1
  VOLUMETRIC BUDGET FOR ENTIRE MODEL AT END OF TIME STEP   30, STRESS PERIOD  36
  ------------------------------------------------------------------------------

     CUMULATIVE VOLUMES      L**3       RATES FOR THIS TIME STEP      L**3/T
     ------------------                 ------------------------

           IN:                                      IN:
           ---                                      ---
             STORAGE     =  1417442432.0000               STORAGE     =           5.6725
       CONSTANT HEAD     =           0.0000         CONSTANT HEAD     =           0.0000
     HEAD DEP BOUNDS     =    26573990.0000       HEAD DEP BOUNDS     =           0.2896
      STREAM LEAKAGE     =  1098324480.0000        STREAM LEAKAGE     =          11.9221
        UZF RECHARGE     =    63058600.0000          UZF RECHARGE     =       4.8507E-02
               GW ET     =           0.0000                 GW ET     =           0.0000
     SURFACE LEAKAGE     =           0.0000       SURFACE LEAKAGE     =           0.0000
           AG WELLS      =           0.0000             AG WELLS      =           0.0000

                TOTAL IN =  2605399552.0000                  TOTAL IN =          17.9327

          OUT:                                     OUT:
          ----                                     ----
             STORAGE     =   698008960.0000               STORAGE     =           8.2440
       CONSTANT HEAD     =           0.0000         CONSTANT HEAD     =           0.0000
     HEAD DEP BOUNDS     =    26531456.0000       HEAD DEP BOUNDS     =           0.2872
      STREAM LEAKAGE     =   916758848.0000        STREAM LEAKAGE     =           9.4015
        UZF RECHARGE     =           0.0000          UZF RECHARGE     =           0.0000
               GW ET     =           0.0000                 GW ET     =           0.0000
     SURFACE LEAKAGE     =           0.0000       SURFACE LEAKAGE     =           0.0000
           AG WELLS      =   964111616.0000             AG WELLS      =           0.0000

               TOTAL OUT =  2605410816.0000                 TOTAL OUT =          17.9327

                IN - OUT =      -11264.0000                  IN - OUT =       1.3351E-05

     PERCENT DISCREPANCY =          -0.00         PERCENT DISCREPANCY =           0.00






         TIME SUMMARY AT END OF TIME STEP   30 IN STRESS PERIOD   36
                    SECONDS     MINUTES      HOURS       DAYS        YEARS
                    -----------------------------------------------------------
   TIME STEP LENGTH  87667.      1461.1      24.352      1.0147     2.77799E-03
 STRESS PERIOD TIME 2.63000E+06  43833.      730.56      30.440     8.33397E-02
         TOTAL TIME 9.21360E+07 1.53560E+06  25593.      1066.4      2.9196    
1
1
                            STRESS PERIOD NO.   37, LENGTH =   2630000.    
                            -----------------------------------------------

                              NUMBER OF TIME STEPS =    30

                               MULTIPLIER FOR DELT =     1.000

                            INITIAL TIME STEP SIZE =   87666.66    

 REUSING NON-PARAMETER GHB CELLS FROM LAST STRESS PERIOD

      2 GHB CELLS

 REUSING STREAM SEGMENT DATA FROM LAST STRESS PERIOD



            AREAL INFILTRATION RATE
 READING ON UNIT   19 WITH FORMAT: (FREE)              

            1           2           3           4           5           6           7           8           9          10
 ........................................................................................................................
   1   1.0000E-10  2.0000E-10   0.000       0.000       0.000       0.000       0.000       0.000       0.000       0.000    
   2   2.0000E-10  1.0000E-10  2.0000E-10   0.000       0.000      8.0000E-10  8.0000E-10  5.0000E-10   0.000       0.000    
   3    0.000      5.0000E-10  1.0000E-10  1.0000E-10  8.0000E-10  8.0000E-10  5.0000E-10  5.0000E-10   0.000       0.000    
   4   8.0000E-10  5.0000E-10  1.0000E-10  1.0000E-10  1.0000E-10  1.0000E-10  1.0000E-10  1.0000E-10  2.0000E-10   0.000    
   5   8.0000E-10  5.0000E-10  1.0000E-10  1.0000E-10  1.0000E-10  1.0000E-10  1.0000E-10  1.0000E-10  1.0000E-10  1.0000E-10
   6   8.0000E-10  5.0000E-10  5.0000E-10  2.0000E-10  2.0000E-10  1.0000E-10  1.0000E-10  1.0000E-10  1.0000E-10  5.0000E-10
   7   8.0000E-10  5.0000E-10  5.0000E-10  2.0000E-10  2.0000E-10  1.0000E-10  1.0000E-10  2.0000E-10  2.0000E-10   0.000    
   8    0.000      5.0000E-10  5.0000E-10  2.0000E-10  2.0000E-10  1.0000E-10  1.0000E-10  2.0000E-10  5.0000E-10   0.000    
   9    0.000      5.0000E-10  5.0000E-10  2.0000E-10  2.0000E-10  1.0000E-10  1.0000E-10  2.0000E-10  5.0000E-10   0.000    
  10    0.000      5.0000E-10  5.0000E-10  2.0000E-10  2.0000E-10  1.0000E-10  1.0000E-10  2.0000E-10  5.0000E-10  8.0000E-10
  11    0.000      1.0000E-10  1.0000E-10  1.0000E-10  1.0000E-10  1.0000E-10  1.0000E-10  2.0000E-10  5.0000E-10   0.000    
  12   1.0000E-10  1.0000E-10  1.0000E-10  1.0000E-10  1.0000E-10  1.0000E-10  1.0000E-10  1.0000E-10  2.0000E-10   0.000    
  13   1.0000E-10  1.0000E-10  2.0000E-10  2.0000E-10  2.0000E-10  2.0000E-10  2.0000E-10  1.0000E-10  1.0000E-10   0.000    
  14    0.000      2.0000E-10  5.0000E-10  5.0000E-10  5.0000E-10  5.0000E-10  5.0000E-10  2.0000E-10  1.0000E-10   0.000    
  15    0.000       0.000      8.0000E-10  8.0000E-10  8.0000E-10  8.0000E-10   0.000       0.000       0.000       0.000    

                  ET RATE =  5.000000E-10

 USING ET EXTINCTION DEPTH FROM PREVIOUS STRESS PERIOD. CURRENT PERIOD IS:      37

 USING EXTINCTION WATER CONTENT FROM PREVIOUS STRESS PERIOD. CURRENT PERIOD IS:      37

 USING AIR ENTRY PRESSURE FROM PREVIOUS STRESS PERIOD. CURRENT PERIOD IS:      37

 USING ROOT PRESSURE HEAD FROM PREVIOUS STRESS PERIOD. CURRENT PERIOD IS:      37

 USING ROOT ACTIVITY FROM PREVIOUS STRESS PERIOD. CURRENT PERIOD IS:      37

 PROCESSING AG STRESS PERIOD DATA

 READING AG STRESS PERIOD DATA

 READING IRRIGATION SEGMENT

 READING IRRIGATION WELL

 READING SUPPLEMENTAL WELL

 END PROCESSING AG STRESS PERIOD DATA OPTIONS
 
 SOLVING FOR HEAD 
                                                   Max.-Head-Change                         Max.-Flux-Residual
  Residual-Control   Outer-Iter.   Inner-Iter.     Column Row Layer    Maximum-Head-Change  Column Row Layer    Maximum-Flux-Residual          L2-NORM 
          0                 1           2             4    5     1       0.2012043776E-01       4    5    1         0.1086370058E+01      0.2260538391E+01
          0                 2           2             4    5     1      -0.1957031580E-02       4    5    1        -0.1086383349E+00      0.2239871374E+00
          0                 3           2             4    5     1       0.1332716023E-03       4    5    1         0.7604674110E-02      0.1566065566E-01
          0                 4           1             4    5     1      -0.5302836679E-05       4    5    1        -0.3110316638E-03      0.6404928932E-03

    ------------------------------------------------
       NWT REQUIRED            4 OUTER ITERATIONS 
       AND A TOTAL OF          7 INNER ITERATIONS.
    ------------------------------------------------

 NO OUTPUT CONTROL FOR STRESS PERIOD   37   TIME STEP    1
 
 SOLVING FOR HEAD 
                                                   Max.-Head-Change                         Max.-Flux-Residual
  Residual-Control   Outer-Iter.   Inner-Iter.     Column Row Layer    Maximum-Head-Change  Column Row Layer    Maximum-Flux-Residual          L2-NORM 
          0                 1           2             4    5     1       0.1937406319E-01       4    5    1         0.1045431647E+01      0.2207113568E+01
          0                 2           2             4    5     1      -0.1884433248E-02       4    5    1        -0.1045443860E+00      0.2187461238E+00
          0                 3           2             4    5     1       0.1283277713E-03       4    5    1         0.7318098590E-02      0.1529379628E-01
          0                 4           1             4    5     1      -0.5106122983E-05       4    5    1        -0.2993107014E-03      0.6254813761E-03

    ------------------------------------------------
       NWT REQUIRED            4 OUTER ITERATIONS 
       AND A TOTAL OF          7 INNER ITERATIONS.
    ------------------------------------------------

 NO OUTPUT CONTROL FOR STRESS PERIOD   37   TIME STEP    2
 
 SOLVING FOR HEAD 
                                                   Max.-Head-Change                         Max.-Flux-Residual
  Residual-Control   Outer-Iter.   Inner-Iter.     Column Row Layer    Maximum-Head-Change  Column Row Layer    Maximum-Flux-Residual          L2-NORM 
          0                 1           2             4    5     1       0.1866697368E-01       4    5    1         0.1006659178E+01      0.2155907025E+01
          0                 2           2             4    5     1      -0.1815655789E-02       4    5    1        -0.1006670409E+00      0.2137149841E+00
          0                 3           2             4    5     1       0.1236441472E-03       4    5    1         0.7046685248E-02      0.1494194361E-01
          0                 4           1             4    5     1      -0.4919762483E-05       4    5    1        -0.2882098865E-03      0.6110913098E-03

    ------------------------------------------------
       NWT REQUIRED            4 OUTER ITERATIONS 
       AND A TOTAL OF          7 INNER ITERATIONS.
    ------------------------------------------------

 NO OUTPUT CONTROL FOR STRESS PERIOD   37   TIME STEP    3
 
 SOLVING FOR HEAD 
                                                   Max.-Head-Change                         Max.-Flux-Residual
  Residual-Control   Outer-Iter.   Inner-Iter.     Column Row Layer    Maximum-Head-Change  Column Row Layer    Maximum-Flux-Residual          L2-NORM 
          0                 1           2             4    5     1       0.1799670713E-01       4    5    1         0.9699162948E+00      0.2108036329E+01
          0                 2           2             4    5     1      -0.1750459760E-02       4    5    1        -0.9699266314E-01      0.2090038693E+00
          0                 3           2             4    5     1       0.1192044224E-03       4    5    1         0.6789479541E-02      0.1461241157E-01
          0                 4           1             4    5     1      -0.4743105857E-05       4    5    1        -0.2776901410E-03      0.5976064150E-03

    ------------------------------------------------
       NWT REQUIRED            4 OUTER ITERATIONS 
       AND A TOTAL OF          7 INNER ITERATIONS.
    ------------------------------------------------

 NO OUTPUT CONTROL FOR STRESS PERIOD   37   TIME STEP    4
 
 SOLVING FOR HEAD 
                                                   Max.-Head-Change                         Max.-Flux-Residual
  Residual-Control   Outer-Iter.   Inner-Iter.     Column Row Layer    Maximum-Head-Change  Column Row Layer    Maximum-Flux-Residual          L2-NORM 
          0                 1           2             3    7     1       0.1771750593E-01       4    5    1         0.9350900080E+00      0.2063250733E+01
          0                 2           2             3    7     1      -0.1716620950E-02       4    5    1        -0.9350995289E-01      0.2045891303E+00
          0                 3           2             3    7     1       0.1171201148E-03       4    5    1         0.6545690489E-02      0.1430352697E-01
          0                 4           1             3    7     1      -0.4652920191E-05       4    5    1        -0.2677191626E-03      0.5849319473E-03

    ------------------------------------------------
       NWT REQUIRED            4 OUTER ITERATIONS 
       AND A TOTAL OF          7 INNER ITERATIONS.
    ------------------------------------------------

 NO OUTPUT CONTROL FOR STRESS PERIOD   37   TIME STEP    5
 
 SOLVING FOR HEAD 
                                                   Max.-Head-Change                         Max.-Flux-Residual
  Residual-Control   Outer-Iter.   Inner-Iter.     Column Row Layer    Maximum-Head-Change  Column Row Layer    Maximum-Flux-Residual          L2-NORM 
          0                 1           2             3    7     1       0.1749103125E-01       4    5    1         0.9020742434E+00      0.2021320156E+01
          0                 2           2             3    7     1      -0.1694734066E-02       4    5    1        -0.9020830198E-01      0.2004491720E+00
          0                 3           2             3    7     1       0.1156249836E-03       4    5    1         0.6314575528E-02      0.1401391097E-01
          0                 4           1             3    7     1      -0.4593582850E-05       4    5    1        -0.2582665359E-03      0.5731931507E-03

    ------------------------------------------------
       NWT REQUIRED            4 OUTER ITERATIONS 
       AND A TOTAL OF          7 INNER ITERATIONS.
    ------------------------------------------------

 NO OUTPUT CONTROL FOR STRESS PERIOD   37   TIME STEP    6
 
 SOLVING FOR HEAD 
                                                   Max.-Head-Change                         Max.-Flux-Residual
  Residual-Control   Outer-Iter.   Inner-Iter.     Column Row Layer    Maximum-Head-Change  Column Row Layer    Maximum-Flux-Residual          L2-NORM 
          0                 1           2             3    7     1       0.1726697203E-01       4    5    1         0.8707552294E+00      0.1982015216E+01
          0                 2           2             3    7     1      -0.1673061850E-02       4    5    1        -0.8707633258E-01      0.1965623065E+00
          0                 3           2             3    7     1       0.1141451398E-03       4    5    1         0.6095338227E-02      0.1374200324E-01
          0                 4           1             3    7     1      -0.4534832200E-05       4    5    1        -0.2492997046E-03      0.5624521920E-03

    ------------------------------------------------
       NWT REQUIRED            4 OUTER ITERATIONS 
       AND A TOTAL OF          7 INNER ITERATIONS.
    ------------------------------------------------

 NO OUTPUT CONTROL FOR STRESS PERIOD   37   TIME STEP    7
 
 SOLVING FOR HEAD 
                                                   Max.-Head-Change                         Max.-Flux-Residual
  Residual-Control   Outer-Iter.   Inner-Iter.     Column Row Layer    Maximum-Head-Change  Column Row Layer    Maximum-Flux-Residual          L2-NORM 
          0                 1           2             3    7     1       0.1704596449E-01       4    5    1         0.8410480804E+00      0.1945143264E+01
          0                 2           2             3    7     1      -0.1651668259E-02       4    5    1        -0.8410555554E-01      0.1929102932E+00
          0                 3           2             3    7     1       0.1126848701E-03       4    5    1         0.5887384330E-02      0.1348615997E-01
          0                 4           1             3    7     1      -0.4476840816E-05       4    5    1        -0.2407943757E-03      0.5515466783E-03

    ------------------------------------------------
       NWT REQUIRED            4 OUTER ITERATIONS 
       AND A TOTAL OF          7 INNER ITERATIONS.
    ------------------------------------------------

 NO OUTPUT CONTROL FOR STRESS PERIOD   37   TIME STEP    8
 
 SOLVING FOR HEAD 
                                                   Max.-Head-Change                         Max.-Flux-Residual
  Residual-Control   Outer-Iter.   Inner-Iter.     Column Row Layer    Maximum-Head-Change  Column Row Layer    Maximum-Flux-Residual          L2-NORM 
          0                 1           2             3    7     1       0.1682764148E-01       4    5    1         0.8128585181E+00      0.1910508452E+01
          0                 2           2             3    7     1      -0.1630519464E-02       4    5    1        -0.8128654246E-01      0.1894743841E+00
          0                 3           2             3    7     1       0.1112418083E-03       4    5    1         0.5690053857E-02      0.1324565989E-01
          0                 4           1             3    7     1      -0.4419515560E-05       4    5    1        -0.2327235654E-03      0.5417255560E-03

    ------------------------------------------------
       NWT REQUIRED            4 OUTER ITERATIONS 
       AND A TOTAL OF          7 INNER ITERATIONS.
    ------------------------------------------------

 NO OUTPUT CONTROL FOR STRESS PERIOD   37   TIME STEP    9
 
 SOLVING FOR HEAD 
                                                   Max.-Head-Change                         Max.-Flux-Residual
  Residual-Control   Outer-Iter.   Inner-Iter.     Column Row Layer    Maximum-Head-Change  Column Row Layer    Maximum-Flux-Residual          L2-NORM 
          0                 1           2             3    7     1       0.1661211400E-01       4    5    1         0.7861056985E+00      0.1877954279E+01
          0                 2           2             3    7     1      -0.1609627645E-02       4    5    1        -0.7861120849E-01      0.1862396565E+00
          0                 3           2             3    7     1       0.1098167392E-03       4    5    1         0.5502780896E-02      0.1301913478E-01
          0                 4           1             3    7     1      -0.4362890740E-05       4    5    1        -0.2250640810E-03      0.5324698023E-03

    ------------------------------------------------
       NWT REQUIRED            4 OUTER ITERATIONS 
       AND A TOTAL OF          7 INNER ITERATIONS.
    ------------------------------------------------

 NO OUTPUT CONTROL FOR STRESS PERIOD   37   TIME STEP   10
 
 SOLVING FOR HEAD 
                                                   Max.-Head-Change                         Max.-Flux-Residual
  Residual-Control   Outer-Iter.   Inner-Iter.     Column Row Layer    Maximum-Head-Change  Column Row Layer    Maximum-Flux-Residual          L2-NORM 
          0                 1           2             3    7     1       0.1639995312E-01       4    5    1         0.7606990217E+00      0.1847320724E+01
          0                 2           2             3    7     1      -0.1589050264E-02       4    5    1        -0.7607049316E-01      0.1831910694E+00
          0                 3           2             3    7     1       0.1084135121E-03       4    5    1         0.5324931205E-02      0.1280562278E-01
          0                 4           1             3    7     1      -0.4307120513E-05       4    5    1        -0.2177900164E-03      0.5237413207E-03

    ------------------------------------------------
       NWT REQUIRED            4 OUTER ITERATIONS 
       AND A TOTAL OF          7 INNER ITERATIONS.
    ------------------------------------------------

 NO OUTPUT CONTROL FOR STRESS PERIOD   37   TIME STEP   11
 
 SOLVING FOR HEAD 
                                                   Max.-Head-Change                         Max.-Flux-Residual
  Residual-Control   Outer-Iter.   Inner-Iter.     Column Row Layer    Maximum-Head-Change  Column Row Layer    Maximum-Flux-Residual          L2-NORM 
          0                 1           2             3    7     1       0.1619073580E-01       4    5    1         0.7365680782E+00      0.1818455122E+01
          0                 2           2             3    7     1      -0.1568745674E-02       4    5    1        -0.7365735511E-01      0.1777585678E+00
          0                 3           2             3    7     1       0.1070292326E-03       4    5    1         0.5156011892E-02      0.1243187368E-01
          0                 4           1             3    7     1      -0.4252119914E-05       4    5    1        -0.2108812030E-03      0.5096318004E-03

    ------------------------------------------------
       NWT REQUIRED            4 OUTER ITERATIONS 
       AND A TOTAL OF          7 INNER ITERATIONS.
    ------------------------------------------------

 NO OUTPUT CONTROL FOR STRESS PERIOD   37   TIME STEP   12
 
 SOLVING FOR HEAD 
                                                   Max.-Head-Change                         Max.-Flux-Residual
  Residual-Control   Outer-Iter.   Inner-Iter.     Column Row Layer    Maximum-Head-Change  Column Row Layer    Maximum-Flux-Residual          L2-NORM 
          0                 1           2             3    7     1       0.1598500637E-01       4    5    1         0.7136467843E+00      0.1791320175E+01
          0                 2           2             3    7     1      -0.1548768709E-02       4    5    1        -0.7136518566E-01      0.1748157409E+00
          0                 3           2             3    7     1       0.1056682684E-03       4    5    1         0.4995560323E-02      0.1218708112E-01
          0                 4           1             3    7     1      -0.4197942707E-05       4    5    1        -0.2043187258E-03      0.4984153723E-03

    ------------------------------------------------
       NWT REQUIRED            4 OUTER ITERATIONS 
       AND A TOTAL OF          7 INNER ITERATIONS.
    ------------------------------------------------

 NO OUTPUT CONTROL FOR STRESS PERIOD   37   TIME STEP   13
 
 SOLVING FOR HEAD 
                                                   Max.-Head-Change                         Max.-Flux-Residual
  Residual-Control   Outer-Iter.   Inner-Iter.     Column Row Layer    Maximum-Head-Change  Column Row Layer    Maximum-Flux-Residual          L2-NORM 
          0                 1           2             3    7     1       0.1578232254E-01       4    5    1         0.6918585316E+00      0.1765584409E+01
          0                 2           2             3    7     1      -0.1529080287E-02       4    5    1        -0.6918632360E-01      0.1722670007E+00
          0                 3           2             3    7     1       0.1043266560E-03       4    5    1         0.4843040273E-02      0.1200852691E-01
          0                 4           1             3    7     1      -0.4144589123E-05       4    5    1        -0.1980806453E-03      0.4911324655E-03

    ------------------------------------------------
       NWT REQUIRED            4 OUTER ITERATIONS 
       AND A TOTAL OF          7 INNER ITERATIONS.
    ------------------------------------------------

 NO OUTPUT CONTROL FOR STRESS PERIOD   37   TIME STEP   14
 
 SOLVING FOR HEAD 
                                                   Max.-Head-Change                         Max.-Flux-Residual
  Residual-Control   Outer-Iter.   Inner-Iter.     Column Row Layer    Maximum-Head-Change  Column Row Layer    Maximum-Flux-Residual          L2-NORM 
          0                 1           2             3    7     1       0.1558295674E-01       4    5    1         0.6711458736E+00      0.1741259242E+01
          0                 2           2             3    7     1      -0.1509706087E-02       4    5    1        -0.6711502401E-01      0.1698522364E+00
          0                 3           1             3    7     1       0.1030068902E-03       4    5    1         0.4698049567E-02      0.1183931159E-01
          0                 4           1             3    7     1      -0.4092258103E-05       4    5    1        -0.1921617479E-03      0.4842112886E-03

    ------------------------------------------------
       NWT REQUIRED            4 OUTER ITERATIONS 
       AND A TOTAL OF          6 INNER ITERATIONS.
    ------------------------------------------------

 NO OUTPUT CONTROL FOR STRESS PERIOD   37   TIME STEP   15
 
 SOLVING FOR HEAD 
                                                   Max.-Head-Change                         Max.-Flux-Residual
  Residual-Control   Outer-Iter.   Inner-Iter.     Column Row Layer    Maximum-Head-Change  Column Row Layer    Maximum-Flux-Residual          L2-NORM 
          0                 1           2             3    7     1       0.1538692415E-01       4    5    1         0.6514547835E+00      0.1718237817E+01
          0                 2           2             3    7     1      -0.1490648456E-02       4    5    1        -0.6514588395E-01      0.1675618252E+00
          0                 3           1             3    7     1       0.1017087678E-03       4    5    1         0.4560209988E-02      0.1167873522E-01
          0                 4           1             3    7     1      -0.4040618654E-05       4    5    1        -0.1865240797E-03      0.4776512345E-03

    ------------------------------------------------
       NWT REQUIRED            4 OUTER ITERATIONS 
       AND A TOTAL OF          6 INNER ITERATIONS.
    ------------------------------------------------

 NO OUTPUT CONTROL FOR STRESS PERIOD   37   TIME STEP   16
 
 SOLVING FOR HEAD 
                                                   Max.-Head-Change                         Max.-Flux-Residual
  Residual-Control   Outer-Iter.   Inner-Iter.     Column Row Layer    Maximum-Head-Change  Column Row Layer    Maximum-Flux-Residual          L2-NORM 
          0                 1           2             3    7     1       0.1519422886E-01       4    5    1         0.6327202797E+00      0.1696418477E+01
          0                 2           2             3    7     1      -0.1471908908E-02       4    5    1        -0.6327240499E-01      0.1653860211E+00
          0                 3           1             3    7     1       0.1004325211E-03       4    5    1         0.4429066680E-02      0.1152618595E-01
          0                 4           1             3    7     1      -0.3989841395E-05       4    5    1        -0.1811602908E-03      0.4714118264E-03

    ------------------------------------------------
       NWT REQUIRED            4 OUTER ITERATIONS 
       AND A TOTAL OF          6 INNER ITERATIONS.
    ------------------------------------------------

 NO OUTPUT CONTROL FOR STRESS PERIOD   37   TIME STEP   17
 
 SOLVING FOR HEAD 
                                                   Max.-Head-Change                         Max.-Flux-Residual
  Residual-Control   Outer-Iter.   Inner-Iter.     Column Row Layer    Maximum-Head-Change  Column Row Layer    Maximum-Flux-Residual          L2-NORM 
          0                 1           2             3    7     1       0.1500511104E-01       4    5    1         0.6149028772E+00      0.1675721143E+01
          0                 2           2             3    7     1      -0.1453511326E-02       4    5    1        -0.6149063845E-01      0.1633173961E+00
          0                 3           1             3    7     1       0.9917975986E-04       4    5    1         0.4304343211E-02      0.1138107420E-01

    ------------------------------------------------
       NWT REQUIRED            3 OUTER ITERATIONS 
       AND A TOTAL OF          5 INNER ITERATIONS.
    ------------------------------------------------

 NO OUTPUT CONTROL FOR STRESS PERIOD   37   TIME STEP   18
 
 SOLVING FOR HEAD 
                                                   Max.-Head-Change                         Max.-Flux-Residual
  Residual-Control   Outer-Iter.   Inner-Iter.     Column Row Layer    Maximum-Head-Change  Column Row Layer    Maximum-Flux-Residual          L2-NORM 
          0                 1           2             3    7     1       0.1481898200E-01       4    5    1         0.5979312312E+00      0.1656044768E+01
          0                 2           2             3    7     1      -0.1435399289E-02       4    5    1        -0.5979344959E-01      0.1613463433E+00
          0                 3           1             3    7     1       0.9794661449E-04       4    5    1         0.4185540172E-02      0.1124281992E-01

    ------------------------------------------------
       NWT REQUIRED            3 OUTER ITERATIONS 
       AND A TOTAL OF          5 INNER ITERATIONS.
    ------------------------------------------------

 NO OUTPUT CONTROL FOR STRESS PERIOD   37   TIME STEP   19
 
 SOLVING FOR HEAD 
                                                   Max.-Head-Change                         Max.-Flux-Residual
  Residual-Control   Outer-Iter.   Inner-Iter.     Column Row Layer    Maximum-Head-Change  Column Row Layer    Maximum-Flux-Residual          L2-NORM 
          0                 1           2             3    7     1       0.1463640113E-01       4    5    1         0.5817778875E+00      0.1637321539E+01
          0                 2           2             3    7     1      -0.1417628192E-02       4    5    1        -0.5817809288E-01      0.1594667960E+00
          0                 3           1             3    7     1       0.9673682356E-04       4    5    1         0.4072465351E-02      0.1111093705E-01

    ------------------------------------------------
       NWT REQUIRED            3 OUTER ITERATIONS 
       AND A TOTAL OF          5 INNER ITERATIONS.
    ------------------------------------------------

 NO OUTPUT CONTROL FOR STRESS PERIOD   37   TIME STEP   20
 
 SOLVING FOR HEAD 
                                                   Max.-Head-Change                         Max.-Flux-Residual
  Residual-Control   Outer-Iter.   Inner-Iter.     Column Row Layer    Maximum-Head-Change  Column Row Layer    Maximum-Flux-Residual          L2-NORM 
          0                 1           2             3    7     1       0.1445709459E-01       4    5    1         0.5663898730E+00      0.1619491618E+01
          0                 2           2             3    7     1      -0.1400171688E-02       4    5    1        -0.5663927081E-01      0.1576732044E+00
          0                 3           1             3    7     1       0.9554858492E-04       4    5    1         0.3964747969E-02      0.1098504961E-01

    ------------------------------------------------
       NWT REQUIRED            3 OUTER ITERATIONS 
       AND A TOTAL OF          5 INNER ITERATIONS.
    ------------------------------------------------

 NO OUTPUT CONTROL FOR STRESS PERIOD   37   TIME STEP   21
 
 SOLVING FOR HEAD 
                                                   Max.-Head-Change                         Max.-Flux-Residual
  Residual-Control   Outer-Iter.   Inner-Iter.     Column Row Layer    Maximum-Head-Change  Column Row Layer    Maximum-Flux-Residual          L2-NORM 
          0                 1           2             3    7     1       0.1428127179E-01       4    5    1         0.5517393344E+00      0.1602480074E+01
          0                 2           2             3    7     1      -0.1383050896E-02       4    5    1        -0.5517419793E-01      0.1559584770E+00
          0                 3           1             3    7     1       0.9438331058E-04       4    5    1         0.3862193010E-02      0.1086466379E-01

    ------------------------------------------------
       NWT REQUIRED            3 OUTER ITERATIONS 
       AND A TOTAL OF          5 INNER ITERATIONS.
    ------------------------------------------------

 NO OUTPUT CONTROL FOR STRESS PERIOD   37   TIME STEP   22
 
 SOLVING FOR HEAD 
                                                   Max.-Head-Change                         Max.-Flux-Residual
  Residual-Control   Outer-Iter.   Inner-Iter.     Column Row Layer    Maximum-Head-Change  Column Row Layer    Maximum-Flux-Residual          L2-NORM 
          0                 1           2             3    7     1       0.1410864854E-01       4    5    1         0.5377706844E+00      0.1586236917E+01
          0                 2           2             3    7     1      -0.1366238680E-02       4    5    1        -0.5377731535E-01      0.1543180695E+00
          0                 3           1             3    7     1       0.9323913684E-04       4    5    1         0.3764411347E-02      0.1074942913E-01

    ------------------------------------------------
       NWT REQUIRED            3 OUTER ITERATIONS 
       AND A TOTAL OF          5 INNER ITERATIONS.
    ------------------------------------------------

 NO OUTPUT CONTROL FOR STRESS PERIOD   37   TIME STEP   23
 
 SOLVING FOR HEAD 
                                                   Max.-Head-Change                         Max.-Flux-Residual
  Residual-Control   Outer-Iter.   Inner-Iter.     Column Row Layer    Maximum-Head-Change  Column Row Layer    Maximum-Flux-Residual          L2-NORM 
          0                 1           2             3    7     1       0.1393918359E-01       4    5    1         0.5244534495E+00      0.1570696760E+01
          0                 2           2             3    7     1      -0.1349731326E-02       4    5    1        -0.5244557560E-01      0.1527456521E+00
          0                 3           1             3    7     1       0.9211580041E-04       4    5    1         0.3671189685E-02      0.1063897426E-01

    ------------------------------------------------
       NWT REQUIRED            3 OUTER ITERATIONS 
       AND A TOTAL OF          5 INNER ITERATIONS.
    ------------------------------------------------

 NO OUTPUT CONTROL FOR STRESS PERIOD   37   TIME STEP   24
 
 SOLVING FOR HEAD 
                                                   Max.-Head-Change                         Max.-Flux-Residual
  Residual-Control   Outer-Iter.   Inner-Iter.     Column Row Layer    Maximum-Head-Change  Column Row Layer    Maximum-Flux-Residual          L2-NORM 
          0                 1           2             3    7     1       0.1377307576E-01       4    5    1         0.5117593382E+00      0.1555824481E+01
          0                 2           2             3    7     1      -0.1333548759E-02       4    5    1        -0.5117614943E-01      0.1512380838E+00
          0                 3           1             3    7     1       0.9101463955E-04       4    5    1         0.3582329940E-02      0.1053307180E-01

    ------------------------------------------------
       NWT REQUIRED            3 OUTER ITERATIONS 
       AND A TOTAL OF          5 INNER ITERATIONS.
    ------------------------------------------------

 NO OUTPUT CONTROL FOR STRESS PERIOD   37   TIME STEP   25
 
 SOLVING FOR HEAD 
                                                   Max.-Head-Change                         Max.-Flux-Residual
  Residual-Control   Outer-Iter.   Inner-Iter.     Column Row Layer    Maximum-Head-Change  Column Row Layer    Maximum-Flux-Residual          L2-NORM 
          0                 1           2             3    7     1       0.1361002816E-01       4    5    1         0.4996468149E+00      0.1541560864E+01
          0                 2           2             3    7     1      -0.1317662470E-02       4    5    1        -0.4996488319E-01      0.1497898440E+00
          0                 3           1             3    7     1       0.8993369971E-04       4    5    1         0.3497541405E-02      0.1043128176E-01

    ------------------------------------------------
       NWT REQUIRED            3 OUTER ITERATIONS 
       AND A TOTAL OF          5 INNER ITERATIONS.
    ------------------------------------------------

 NO OUTPUT CONTROL FOR STRESS PERIOD   37   TIME STEP   26
 
 SOLVING FOR HEAD 
                                                   Max.-Head-Change                         Max.-Flux-Residual
  Residual-Control   Outer-Iter.   Inner-Iter.     Column Row Layer    Maximum-Head-Change  Column Row Layer    Maximum-Flux-Residual          L2-NORM 
          0                 1           2             3    7     1       0.1345023252E-01       4    5    1         0.4880912594E+00      0.1527870513E+01
          0                 2           2             3    7     1      -0.1302005540E-02       4    5    1        -0.4880931475E-01      0.1455730383E+00
          0                 3           1             3    7     1       0.8888052483E-04       4    5    1         0.3416651713E-02      0.1013338196E-01

    ------------------------------------------------
       NWT REQUIRED            3 OUTER ITERATIONS 
       AND A TOTAL OF          5 INNER ITERATIONS.
    ------------------------------------------------

 NO OUTPUT CONTROL FOR STRESS PERIOD   37   TIME STEP   27
 
 SOLVING FOR HEAD 
                                                   Max.-Head-Change                         Max.-Flux-Residual
  Residual-Control   Outer-Iter.   Inner-Iter.     Column Row Layer    Maximum-Head-Change  Column Row Layer    Maximum-Flux-Residual          L2-NORM 
          0                 1           2             3    7     1       0.1329381039E-01       4    5    1         0.4770627896E+00      0.1514826409E+01
          0                 2           2             3    7     1      -0.1286728744E-02       4    5    1        -0.4770645581E-01      0.1446418508E+00
          0                 3           1             3    7     1       0.8784732707E-04       4    5    1         0.3339451664E-02      0.1004409423E-01

    ------------------------------------------------
       NWT REQUIRED            3 OUTER ITERATIONS 
       AND A TOTAL OF          5 INNER ITERATIONS.
    ------------------------------------------------

 NO OUTPUT CONTROL FOR STRESS PERIOD   37   TIME STEP   28
 
 SOLVING FOR HEAD 
                                                   Max.-Head-Change                         Max.-Flux-Residual
  Residual-Control   Outer-Iter.   Inner-Iter.     Column Row Layer    Maximum-Head-Change  Column Row Layer    Maximum-Flux-Residual          L2-NORM 
          0                 1           2             3    7     1       0.1314040845E-01       4    5    1         0.4665331035E+00      0.1502175905E+01
          0                 2           2             3    7     1      -0.1271766046E-02       4    5    1        -0.4665347610E-01      0.1433224611E+00
          0                 3           1             3    7     1       0.8682973188E-04       4    5    1         0.3265743161E-02      0.9951075368E-02

    ------------------------------------------------
       NWT REQUIRED            3 OUTER ITERATIONS 
       AND A TOTAL OF          5 INNER ITERATIONS.
    ------------------------------------------------

 NO OUTPUT CONTROL FOR STRESS PERIOD   37   TIME STEP   29
 
 SOLVING FOR HEAD 
                                                   Max.-Head-Change                         Max.-Flux-Residual
  Residual-Control   Outer-Iter.   Inner-Iter.     Column Row Layer    Maximum-Head-Change  Column Row Layer    Maximum-Flux-Residual          L2-NORM 
          0                 1           2             3    7     1       0.1299017266E-01       4    5    1         0.4564756208E+00      0.1489985181E+01
          0                 2           2             3    7     1      -0.1257112530E-02       4    5    1        -0.4564771751E-01      0.1420503017E+00
          0                 3           1             3    7     1       0.8583315315E-04       4    5    1         0.3195340134E-02      0.9861375870E-02

    ------------------------------------------------
       NWT REQUIRED            3 OUTER ITERATIONS 
       AND A TOTAL OF          5 INNER ITERATIONS.
    ------------------------------------------------

 NO OUTPUT CONTROL FOR STRESS PERIOD   37   TIME STEP   30



 STREAM LISTING     PERIOD     37   STEP       30

 LAYER ROW COL. STREAM  RCH.  FLOW INTO     FLOW TO   FLOW OUT OF   OVRLND.     DIRECT     STREAM       STREAM     STREAM     STREAM   STREAMBED  STREAMBED
                SEG.NO.  NO.  STRM. RCH.    AQUIFER    STRM. RCH.    RUNOFF     PRECIP       ET          HEAD       DEPTH      WIDTH   CONDCTNC.   GRADIENT

   1    1    1     1     1    8.6247E+00  1.3546E-01   8.4893E+00  0.000E+00  0.000E+00  0.000E+00  1.09390E+03  8.549E-01  7.809E+00  3.514E-02  1.285E+00
   1    2    2     1     2    8.4893E+00  2.0809E-01   8.2812E+00  0.000E+00  0.000E+00  0.000E+00  1.08891E+03  8.492E-01  7.723E+00  5.406E-02  1.283E+00
   1    3    3     1     3    8.2812E+00  1.7583E-01   8.1054E+00  0.000E+00  0.000E+00  0.000E+00  1.08326E+03  8.427E-01  7.626E+00  4.576E-02  1.281E+00
   1    3    4     1     4    8.1054E+00  1.6058E-01   7.9448E+00  0.000E+00  0.000E+00  0.000E+00  1.07824E+03  8.369E-01  7.541E+00  4.185E-02  1.279E+00
   1    4    5     2     1    5.9448E+00  2.7323E-01   5.6716E+00  0.000E+00  0.000E+00  0.000E+00  1.07244E+03  5.030E-01  1.200E+01  7.800E-02  1.168E+00
   1    5    6     2     2    5.6716E+00  2.0942E-01   5.4621E+00  0.000E+00  0.000E+00  0.000E+00  1.06700E+03  4.904E-01  1.200E+01  6.000E-02  1.163E+00
   1    6    6     2     3    5.4621E+00  2.0875E-01   5.2534E+00  0.000E+00  0.000E+00  0.000E+00  1.06227E+03  4.792E-01  1.200E+01  6.000E-02  1.160E+00
   1    7    6     2     4    5.2534E+00  2.0808E-01   5.0453E+00  0.000E+00  0.000E+00  0.000E+00  1.05754E+03  4.679E-01  1.200E+01  6.000E-02  1.156E+00
   1    8    6     2     5    5.0453E+00  2.0739E-01   4.8379E+00  0.000E+00  0.000E+00  0.000E+00  1.05282E+03  4.565E-01  1.200E+01  6.000E-02  1.152E+00
   1    3    5     3     1    2.0000E+00  2.8252E-01   1.7175E+00  0.000E+00  0.000E+00  0.000E+00  1.07555E+03  1.909E+00  9.636E+00  7.227E-02  1.955E+00
   1    3    6     3     2    1.7175E+00  2.4905E-01   1.4684E+00  0.000E+00  0.000E+00  0.000E+00  1.07264E+03  1.727E+00  8.909E+00  6.682E-02  1.864E+00
   1    3    7     3     3    1.4684E+00  1.9718E-01   1.2712E+00  0.000E+00  0.000E+00  0.000E+00  1.06987E+03  1.555E+00  8.218E+00  5.547E-02  1.777E+00
   1    4    8     3     4    1.2712E+00  2.2567E-01   1.0456E+00  0.000E+00  0.000E+00  0.000E+00  1.06682E+03  1.364E+00  7.455E+00  6.709E-02  1.682E+00
   1    5    8     3     5    1.0456E+00  1.5790E-01   8.8768E-01  0.000E+00  0.000E+00  0.000E+00  1.06362E+03  1.164E+00  6.655E+00  4.991E-02  1.582E+00
   1    6    8     3     6    8.8768E-01  5.5980E-02   8.3170E-01  0.000E+00  0.000E+00  0.000E+00  1.06158E+03  1.036E+00  6.145E+00  1.844E-02  1.518E+00
   1    5   10     4     1    1.0000E+01  9.0919E-02   9.9091E+00  0.000E+00  0.000E+00  0.000E+00  1.07836E+03  6.368E-01  1.000E+01  2.500E-02  1.212E+00
   1    5    9     4     2    9.9091E+00  1.8158E-01   9.7275E+00  0.000E+00  0.000E+00  0.000E+00  1.07154E+03  6.315E-01  1.000E+01  5.000E-02  1.211E+00
   1    6    8     4     3    9.7275E+00  1.2689E-01   9.6006E+00  0.000E+00  0.000E+00  0.000E+00  1.06381E+03  6.256E-01  1.000E+01  3.500E-02  1.209E+00
   1    6    8     5     1    1.0432E+01  2.2686E-01   1.0205E+01  0.000E+00  0.000E+00  0.000E+00  1.05868E+03  6.790E-01  1.542E+01  6.166E-02  1.226E+00
   1    7    7     5     2    1.0205E+01  2.7894E-01   9.9265E+00  0.000E+00  0.000E+00  0.000E+00  1.05417E+03  6.732E-01  1.519E+01  7.594E-02  1.224E+00
   1    8    7     5     3    9.9265E+00  1.9221E-01   9.7343E+00  0.000E+00  0.000E+00  0.000E+00  1.04992E+03  6.676E-01  1.497E+01  5.241E-02  1.223E+00
   1    8    6     5     4    9.7343E+00  1.3577E-01   9.5985E+00  0.000E+00  0.000E+00  0.000E+00  1.04691E+03  6.637E-01  1.482E+01  3.706E-02  1.221E+00
   1    9    6     6     1    1.4436E+01  2.3244E-01   1.4204E+01  0.000E+00  0.000E+00  0.000E+00  1.04360E+03  8.741E-01  1.200E+01  6.000E-02  1.291E+00
   1   10    7     6     2    1.4204E+01  2.3193E-01   1.3972E+01  0.000E+00  0.000E+00  0.000E+00  1.03905E+03  8.655E-01  1.200E+01  6.000E-02  1.289E+00
   1   11    7     6     3    1.3972E+01  2.3142E-01   1.3741E+01  0.000E+00  0.000E+00  0.000E+00  1.03449E+03  8.570E-01  1.200E+01  6.000E-02  1.286E+00
   1   12    7     6     4    1.3741E+01  2.3090E-01   1.3510E+01  0.000E+00  0.000E+00  0.000E+00  1.02994E+03  8.484E-01  1.200E+01  6.000E-02  1.283E+00
   1   13    7     6     5    1.3510E+01  5.8889E-03   1.3504E+01  0.000E+00  0.000E+00  0.000E+00  1.02675E+03  8.439E-01  1.200E+01  2.400E-02  8.179E-02
   1   14    9     7     1    1.5000E+02  1.3938E+00   1.4861E+02  0.000E+00  0.000E+00  0.000E+00  1.03987E+03  2.288E+00  5.529E+01  5.593E-01  8.307E-01
   1   13    8     7     2    1.4861E+02  2.0172E+00   1.4659E+02  0.000E+00  0.000E+00  0.000E+00  1.03478E+03  2.278E+00  5.525E+01  6.147E-01  1.094E+00
   1   13    7     7     3    1.4659E+02  1.7756E+00   1.4481E+02  0.000E+00  0.000E+00  0.000E+00  1.02969E+03  2.268E+00  5.521E+01  5.583E-01  1.060E+00
   1   13    6     8     1    1.5832E+02  1.1545E+00   1.5716E+02  0.000E+00  0.000E+00  0.000E+00  1.02475E+03  2.870E+00  4.162E+01  4.241E-01  9.073E-01
   1   13    5     8     2    1.5716E+02  4.0167E-01   1.5676E+02  0.000E+00  0.000E+00  0.000E+00  1.01849E+03  2.865E+00  4.154E+01  4.234E-01  3.163E-01
   1   13    4     8     3    1.5676E+02 -1.6495E+00   1.5841E+02  0.000E+00  0.000E+00  0.000E+00  1.01224E+03  2.869E+00  4.161E+01  4.240E+00 -1.297E-01
   1   13    3     8     4    1.5841E+02 -3.2621E+00   1.6167E+02  0.000E+00  0.000E+00  0.000E+00  1.00601E+03  2.886E+00  4.185E+01  4.265E+00 -2.550E-01
   1   13    2     8     5    1.6167E+02 -2.4860E+00   1.6416E+02  0.000E+00  0.000E+00  0.000E+00  9.99780E+02  2.905E+00  4.213E+01  4.293E+00 -1.930E-01
   1   13    1     8     6    1.6416E+02 -1.9608E+00   1.6612E+02  0.000E+00  0.000E+00  0.000E+00  9.94795E+02  2.920E+00  4.234E+01  2.589E+00 -2.525E-01
   1    8    6     9     1    0.0000E+00  0.0000E+00   0.0000E+00  0.000E+00  0.000E+00  0.000E+00  1.07875E+03  0.000E+00  4.000E+00  0.000E+00  1.000E+00
   1    8    5     9     2    0.0000E+00  0.0000E+00   0.0000E+00  0.000E+00  0.000E+00  0.000E+00  1.07825E+03  0.000E+00  4.000E+00  0.000E+00  1.000E+00





UNSATURATED ZONE PACKAGE VOLUMETRIC BUDGET FOR  TIME STEP    30 STRESS PERIOD   37
  ------------------------------------------------------------------------------



     CUMULATIVE VOLUMES      L**3       RATES FOR THIS TIME STEP      L**3/T
     ------------------                 ------------------------

           IN:                                      IN:
           ---                                      ---
        INFILTRATION =  1546673361.5429          INFILTRATION =           0.8475

          OUT:                                     OUT:
          ----                                     ----
              UZF ET =  1284123623.4998                UZF ET =           0.7500
        UZF RECHARGE =    63251234.7854          UZF RECHARGE =           0.1266

            IN - OUT =   199298503.2577              IN - OUT =      -2.9057E-02

          STORAGE:                                 STORAGE:
          --------                                 --------
      STORAGE CHANGE =   199299676.5503        STORAGE CHANGE =      -2.9057E-02

 PERCENT DISCREPANCY IS DIFFERENCE BETWEEN IN-OUT MINUS CHANGE IN STORAGE
 DIVIDED BY THE AVERAGE OF IN AND OUT TIMES 100

 PERCENT DISCREPANCY =          -0.00     PERCENT DISCREPANCY =           0.00






1
  VOLUMETRIC BUDGET FOR AGRICULTURAL FIELDS AT  END OF TIME STEP   30, STRESS PERIOD  37
  ------------------------------------------------------------------------------

     CUMULATIVE VOLUMES      L**3       RATES FOR THIS TIME STEP      L**3/T
     ------------------                 ------------------------

           IN:                                      IN:
           ---                                      ---
               AG WELLS  =   964111616.0000                 AG WELLS  =           0.0000
      DIVERSION SEGMENTS =   502246304.0000        DIVERSION SEGMENTS =           0.0000
           GW IRRIGATION =           0.0000             GW IRRIGATION =           0.0000
           SW IRRIGATION =           0.0000             SW IRRIGATION =           0.0000
        SYSTEM LOSSES GW =           0.0000          SYSTEM LOSSES GW =           0.0000
        SYSTEM LOSSES SW =           0.0000          SYSTEM LOSSES SW =           0.0000

                TOTAL IN =  1466357888.0000                  TOTAL IN =           0.0000

          OUT:                                     OUT:
          ----                                     ----
               AG WELLS  =           0.0000                 AG WELLS  =           0.0000
      DIVERSION SEGMENTS =           0.0000        DIVERSION SEGMENTS =           0.0000
           GW IRRIGATION =   964111616.0000             GW IRRIGATION =           0.0000
           SW IRRIGATION =   502255776.0000             SW IRRIGATION =           0.0000
        SYSTEM LOSSES GW =           0.0000          SYSTEM LOSSES GW =           0.0000
        SYSTEM LOSSES SW =           0.0000          SYSTEM LOSSES SW =           0.0000

               TOTAL OUT =  1466367360.0000                 TOTAL OUT =           0.0000

                IN - OUT =       -9472.0000                  IN - OUT =           0.0000

     PERCENT DISCREPANCY =          -0.00         PERCENT DISCREPANCY =           0.00



1
  VOLUMETRIC BUDGET FOR ENTIRE MODEL AT END OF TIME STEP   30, STRESS PERIOD  37
  ------------------------------------------------------------------------------

     CUMULATIVE VOLUMES      L**3       RATES FOR THIS TIME STEP      L**3/T
     ------------------                 ------------------------

           IN:                                      IN:
           ---                                      ---
             STORAGE     =  1429995904.0000               STORAGE     =           4.1022
       CONSTANT HEAD     =           0.0000         CONSTANT HEAD     =           0.0000
     HEAD DEP BOUNDS     =    27335798.0000       HEAD DEP BOUNDS     =           0.2897
      STREAM LEAKAGE     =  1129489664.0000        STREAM LEAKAGE     =          11.8636
        UZF RECHARGE     =    63251224.0000          UZF RECHARGE     =           0.1266
               GW ET     =           0.0000                 GW ET     =           0.0000
     SURFACE LEAKAGE     =           0.0000       SURFACE LEAKAGE     =           0.0000
           AG WELLS      =           0.0000             AG WELLS      =           0.0000

                TOTAL IN =  2650072576.0000                  TOTAL IN =          16.3821

          OUT:                                     OUT:
          ----                                     ----
             STORAGE     =   717195264.0000               STORAGE     =           6.7371
       CONSTANT HEAD     =           0.0000         CONSTANT HEAD     =           0.0000
     HEAD DEP BOUNDS     =    27286508.0000       HEAD DEP BOUNDS     =           0.2870
      STREAM LEAKAGE     =   941491264.0000        STREAM LEAKAGE     =           9.3584
        UZF RECHARGE     =           0.0000          UZF RECHARGE     =           0.0000
               GW ET     =           0.0000                 GW ET     =           0.0000
     SURFACE LEAKAGE     =           0.0000       SURFACE LEAKAGE     =           0.0000
           AG WELLS      =   964111616.0000             AG WELLS      =           0.0000

               TOTAL OUT =  2650084608.0000                 TOTAL OUT =          16.3825

                IN - OUT =      -12032.0000                  IN - OUT =      -4.1962E-04

     PERCENT DISCREPANCY =          -0.00         PERCENT DISCREPANCY =          -0.00






         TIME SUMMARY AT END OF TIME STEP   30 IN STRESS PERIOD   37
                    SECONDS     MINUTES      HOURS       DAYS        YEARS
                    -----------------------------------------------------------
   TIME STEP LENGTH  87667.      1461.1      24.352      1.0147     2.77799E-03
 STRESS PERIOD TIME 2.63000E+06  43833.      730.56      30.440     8.33397E-02
         TOTAL TIME 9.47660E+07 1.57943E+06  26324.      1096.8      3.0030    
1
1
                            STRESS PERIOD NO.   38, LENGTH =   2630000.    
                            -----------------------------------------------

                              NUMBER OF TIME STEPS =    30

                               MULTIPLIER FOR DELT =     1.000

                            INITIAL TIME STEP SIZE =   87666.66    

 REUSING NON-PARAMETER GHB CELLS FROM LAST STRESS PERIOD

      2 GHB CELLS

 REUSING STREAM SEGMENT DATA FROM LAST STRESS PERIOD



            AREAL INFILTRATION RATE
 READING ON UNIT   19 WITH FORMAT: (FREE)              

            1           2           3           4           5           6           7           8           9          10
 ........................................................................................................................
   1   1.0000E-10  2.0000E-10   0.000       0.000       0.000       0.000       0.000       0.000       0.000       0.000    
   2   2.0000E-10  1.0000E-10  2.0000E-10   0.000       0.000      8.0000E-10  8.0000E-10  5.0000E-10   0.000       0.000    
   3    0.000      5.0000E-10  1.0000E-10  1.0000E-10  8.0000E-10  8.0000E-10  5.0000E-10  5.0000E-10   0.000       0.000    
   4   8.0000E-10  5.0000E-10  1.0000E-10  1.0000E-10  1.0000E-10  1.0000E-10  1.0000E-10  1.0000E-10  2.0000E-10   0.000    
   5   8.0000E-10  5.0000E-10  1.0000E-10  1.0000E-10  1.0000E-10  1.0000E-10  1.0000E-10  1.0000E-10  1.0000E-10  1.0000E-10
   6   8.0000E-10  5.0000E-10  5.0000E-10  2.0000E-10  2.0000E-10  1.0000E-10  1.0000E-10  1.0000E-10  1.0000E-10  5.0000E-10
   7   8.0000E-10  5.0000E-10  5.0000E-10  2.0000E-10  2.0000E-10  1.0000E-10  1.0000E-10  2.0000E-10  2.0000E-10   0.000    
   8    0.000      5.0000E-10  5.0000E-10  2.0000E-10  2.0000E-10  1.0000E-10  1.0000E-10  2.0000E-10  5.0000E-10   0.000    
   9    0.000      5.0000E-10  5.0000E-10  2.0000E-10  2.0000E-10  1.0000E-10  1.0000E-10  2.0000E-10  5.0000E-10   0.000    
  10    0.000      5.0000E-10  5.0000E-10  2.0000E-10  2.0000E-10  1.0000E-10  1.0000E-10  2.0000E-10  5.0000E-10  8.0000E-10
  11    0.000      1.0000E-10  1.0000E-10  1.0000E-10  1.0000E-10  1.0000E-10  1.0000E-10  2.0000E-10  5.0000E-10   0.000    
  12   1.0000E-10  1.0000E-10  1.0000E-10  1.0000E-10  1.0000E-10  1.0000E-10  1.0000E-10  1.0000E-10  2.0000E-10   0.000    
  13   1.0000E-10  1.0000E-10  2.0000E-10  2.0000E-10  2.0000E-10  2.0000E-10  2.0000E-10  1.0000E-10  1.0000E-10   0.000    
  14    0.000      2.0000E-10  5.0000E-10  5.0000E-10  5.0000E-10  5.0000E-10  5.0000E-10  2.0000E-10  1.0000E-10   0.000    
  15    0.000       0.000      8.0000E-10  8.0000E-10  8.0000E-10  8.0000E-10   0.000       0.000       0.000       0.000    

                  ET RATE =  5.000000E-10

 USING ET EXTINCTION DEPTH FROM PREVIOUS STRESS PERIOD. CURRENT PERIOD IS:      38

 USING EXTINCTION WATER CONTENT FROM PREVIOUS STRESS PERIOD. CURRENT PERIOD IS:      38

 USING AIR ENTRY PRESSURE FROM PREVIOUS STRESS PERIOD. CURRENT PERIOD IS:      38

 USING ROOT PRESSURE HEAD FROM PREVIOUS STRESS PERIOD. CURRENT PERIOD IS:      38

 USING ROOT ACTIVITY FROM PREVIOUS STRESS PERIOD. CURRENT PERIOD IS:      38

 PROCESSING AG STRESS PERIOD DATA

 READING AG STRESS PERIOD DATA

 READING IRRIGATION SEGMENT

 READING IRRIGATION WELL

 READING SUPPLEMENTAL WELL

 END PROCESSING AG STRESS PERIOD DATA OPTIONS
 
 SOLVING FOR HEAD 
                                                   Max.-Head-Change                         Max.-Flux-Residual
  Residual-Control   Outer-Iter.   Inner-Iter.     Column Row Layer    Maximum-Head-Change  Column Row Layer    Maximum-Flux-Residual          L2-NORM 
          0                 1           2             3    7     1       0.1284278517E-01       4    5    1         0.4468651539E+00      0.1478227432E+01
          0                 2           2             3    7     1      -0.1242737171E-02       4    5    1        -0.4468666126E-01      0.1408227279E+00
          0                 3           1             3    7     1       0.8485548036E-04       4    5    1         0.3128066244E-02      0.9774817787E-02

    ------------------------------------------------
       NWT REQUIRED            3 OUTER ITERATIONS 
       AND A TOTAL OF          5 INNER ITERATIONS.
    ------------------------------------------------

 NO OUTPUT CONTROL FOR STRESS PERIOD   38   TIME STEP    1
 
 SOLVING FOR HEAD 
                                                   Max.-Head-Change                         Max.-Flux-Residual
  Residual-Control   Outer-Iter.   Inner-Iter.     Column Row Layer    Maximum-Head-Change  Column Row Layer    Maximum-Flux-Residual          L2-NORM 
          0                 1           2             3    7     1       0.1269865813E-01       4    5    1         0.4376779276E+00      0.1468670480E+01
          0                 2           2             3    7     1      -0.1228680305E-02       4    5    1        -0.4376792973E-01      0.1398206280E+00
          0                 3           1             3    7     1       0.8389945123E-04       4    5    1         0.3063755089E-02      0.9703831624E-02

    ------------------------------------------------
       NWT REQUIRED            3 OUTER ITERATIONS 
       AND A TOTAL OF          5 INNER ITERATIONS.
    ------------------------------------------------

 NO OUTPUT CONTROL FOR STRESS PERIOD   38   TIME STEP    2
 
 SOLVING FOR HEAD 
                                                   Max.-Head-Change                         Max.-Flux-Residual
  Residual-Control   Outer-Iter.   Inner-Iter.     Column Row Layer    Maximum-Head-Change  Column Row Layer    Maximum-Flux-Residual          L2-NORM 
          0                 1           2             3    7     1       0.1255722760E-01       4    5    1         0.4288960937E+00      0.1460325144E+01
          0                 2           2             3    7     1      -0.1214886971E-02       4    5    1        -0.4288973805E-01      0.1389435597E+00
          0                 3           1             3    7     1       0.8296132512E-04       4    5    1         0.3002281730E-02      0.9641440865E-02

    ------------------------------------------------
       NWT REQUIRED            3 OUTER ITERATIONS 
       AND A TOTAL OF          5 INNER ITERATIONS.
    ------------------------------------------------

 NO OUTPUT CONTROL FOR STRESS PERIOD   38   TIME STEP    3
 
 SOLVING FOR HEAD 
                                                   Max.-Head-Change                         Max.-Flux-Residual
  Residual-Control   Outer-Iter.   Inner-Iter.     Column Row Layer    Maximum-Head-Change  Column Row Layer    Maximum-Flux-Residual          L2-NORM 
          0                 1           2             3    7     1       0.1241866918E-01       4    5    1         0.4204957318E+00      0.1449495861E+01
          0                 2           2             3    7     1      -0.1201374432E-02       4    5    1        -0.4204969414E-01      0.1378155903E+00
          0                 3           1             3    7     1       0.8204227618E-04       4    5    1         0.2943478709E-02      0.9562065627E-02

    ------------------------------------------------
       NWT REQUIRED            3 OUTER ITERATIONS 
       AND A TOTAL OF          5 INNER ITERATIONS.
    ------------------------------------------------

 NO OUTPUT CONTROL FOR STRESS PERIOD   38   TIME STEP    4
 
 SOLVING FOR HEAD 
                                                   Max.-Head-Change                         Max.-Flux-Residual
  Residual-Control   Outer-Iter.   Inner-Iter.     Column Row Layer    Maximum-Head-Change  Column Row Layer    Maximum-Flux-Residual          L2-NORM 
          0                 1           2             3    7     1       0.1228290693E-01       4    5    1         0.4124494577E+00      0.1439012394E+01
          0                 2           2             3    7     1      -0.1188085840E-02       4    5    1        -0.4124505953E-01      0.1345788696E+00
          0                 3           1             3    7     1       0.8113782998E-04       4    5    1         0.2887153950E-02      0.9335816961E-02

    ------------------------------------------------
       NWT REQUIRED            3 OUTER ITERATIONS 
       AND A TOTAL OF          5 INNER ITERATIONS.
    ------------------------------------------------

 NO OUTPUT CONTROL FOR STRESS PERIOD   38   TIME STEP    5
 
 SOLVING FOR HEAD 
                                                   Max.-Head-Change                         Max.-Flux-Residual
  Residual-Control   Outer-Iter.   Inner-Iter.     Column Row Layer    Maximum-Head-Change  Column Row Layer    Maximum-Flux-Residual          L2-NORM 
          0                 1           2             3    7     1       0.1214996132E-01       4    5    1         0.4049244635E+00      0.1428969020E+01
          0                 2           2             3    7     1      -0.1175041280E-02       4    5    1        -0.4049255357E-01      0.1334166422E+00
          0                 3           1             3    7     1       0.8026775502E-04       4    5    1         0.2838830856E-02      0.9225237895E-02

    ------------------------------------------------
       NWT REQUIRED            3 OUTER ITERATIONS 
       AND A TOTAL OF          5 INNER ITERATIONS.
    ------------------------------------------------

 NO OUTPUT CONTROL FOR STRESS PERIOD   38   TIME STEP    6
 
 SOLVING FOR HEAD 
                                                   Max.-Head-Change                         Max.-Flux-Residual
  Residual-Control   Outer-Iter.   Inner-Iter.     Column Row Layer    Maximum-Head-Change  Column Row Layer    Maximum-Flux-Residual          L2-NORM 
          0                 1           2             3    7     1       0.1202012891E-01       4    5    1         0.3980721638E+00      0.1419156420E+01
          0                 2           2             3    7     1      -0.1162369719E-02       4    5    1        -0.3980731826E-01      0.1323407228E+00
          0                 3           1             3    7     1       0.7940629697E-04       4    5    1         0.2790886228E-02      0.9149043226E-02

    ------------------------------------------------
       NWT REQUIRED            3 OUTER ITERATIONS 
       AND A TOTAL OF          5 INNER ITERATIONS.
    ------------------------------------------------

 NO OUTPUT CONTROL FOR STRESS PERIOD   38   TIME STEP    7
 
 SOLVING FOR HEAD 
                                                   Max.-Head-Change                         Max.-Flux-Residual
  Residual-Control   Outer-Iter.   Inner-Iter.     Column Row Layer    Maximum-Head-Change  Column Row Layer    Maximum-Flux-Residual          L2-NORM 
          0                 1           2             3    7     1       0.1189274615E-01       4    5    1         0.3914894941E+00      0.1409620296E+01
          0                 2           2             3    7     1      -0.1149939115E-02       4    5    1        -0.3914904629E-01      0.1312959928E+00
          0                 3           1             3    7     1       0.7856115399E-04       4    5    1         0.2744827065E-02      0.9075018603E-02

    ------------------------------------------------
       NWT REQUIRED            3 OUTER ITERATIONS 
       AND A TOTAL OF          5 INNER ITERATIONS.
    ------------------------------------------------

 NO OUTPUT CONTROL FOR STRESS PERIOD   38   TIME STEP    8
 
 SOLVING FOR HEAD 
                                                   Max.-Head-Change                         Max.-Flux-Residual
  Residual-Control   Outer-Iter.   Inner-Iter.     Column Row Layer    Maximum-Head-Change  Column Row Layer    Maximum-Flux-Residual          L2-NORM 
          0                 1           2             3    7     1       0.1176798015E-01       4    5    1         0.3851489340E+00      0.1400340604E+01
          0                 2           2             3    7     1      -0.1137765450E-02       4    5    1        -0.3851498557E-01      0.1302800583E+00
          0                 3           1             3    7     1       0.7773342425E-04       4    5    1         0.2700460943E-02      0.9002806830E-02

    ------------------------------------------------
       NWT REQUIRED            3 OUTER ITERATIONS 
       AND A TOTAL OF          5 INNER ITERATIONS.
    ------------------------------------------------

 NO OUTPUT CONTROL FOR STRESS PERIOD   38   TIME STEP    9
 
 SOLVING FOR HEAD 
                                                   Max.-Head-Change                         Max.-Flux-Residual
  Residual-Control   Outer-Iter.   Inner-Iter.     Column Row Layer    Maximum-Head-Change  Column Row Layer    Maximum-Flux-Residual          L2-NORM 
          0                 1           2             3    7     1       0.1164575209E-01       4    5    1         0.3790539999E+00      0.1391301399E+01
          0                 2           2             3    7     1      -0.1125840978E-02       4    5    1        -0.3790548772E-01      0.1292922896E+00
          0                 3           1             3    7     1       0.7692258257E-04       4    5    1         0.2657812425E-02      0.8933068560E-02

    ------------------------------------------------
       NWT REQUIRED            3 OUTER ITERATIONS 
       AND A TOTAL OF          5 INNER ITERATIONS.
    ------------------------------------------------

 NO OUTPUT CONTROL FOR STRESS PERIOD   38   TIME STEP   10
 
 SOLVING FOR HEAD 
                                                   Max.-Head-Change                         Max.-Flux-Residual
  Residual-Control   Outer-Iter.   Inner-Iter.     Column Row Layer    Maximum-Head-Change  Column Row Layer    Maximum-Flux-Residual          L2-NORM 
          0                 1           2             3    7     1       0.1152622575E-01       4    5    1         0.3731856954E+00      0.1382489734E+01
          0                 2           2             3    7     1      -0.1114181715E-02       4    5    1        -0.3731865309E-01      0.1283306386E+00
          0                 3           1             3    7     1       0.7612971705E-04       4    5    1         0.2616748657E-02      0.8864865569E-02

    ------------------------------------------------
       NWT REQUIRED            3 OUTER ITERATIONS 
       AND A TOTAL OF          5 INNER ITERATIONS.
    ------------------------------------------------

 NO OUTPUT CONTROL FOR STRESS PERIOD   38   TIME STEP   11
 
 SOLVING FOR HEAD 
                                                   Max.-Head-Change                         Max.-Flux-Residual
  Residual-Control   Outer-Iter.   Inner-Iter.     Column Row Layer    Maximum-Head-Change  Column Row Layer    Maximum-Flux-Residual          L2-NORM 
          0                 1           2             3    7     1       0.1140907847E-01       4    5    1         0.3675332646E+00      0.1373889745E+01
          0                 2           2             3    7     1      -0.1102756181E-02       4    5    1        -0.3675340611E-01      0.1273938150E+00
          0                 3           1             3    7     1       0.7535268758E-04       4    5    1         0.2577194494E-02      0.8798635823E-02

    ------------------------------------------------
       NWT REQUIRED            3 OUTER ITERATIONS 
       AND A TOTAL OF          5 INNER ITERATIONS.
    ------------------------------------------------

 NO OUTPUT CONTROL FOR STRESS PERIOD   38   TIME STEP   12
 
 SOLVING FOR HEAD 
                                                   Max.-Head-Change                         Max.-Flux-Residual
  Residual-Control   Outer-Iter.   Inner-Iter.     Column Row Layer    Maximum-Head-Change  Column Row Layer    Maximum-Flux-Residual          L2-NORM 
          0                 1           2             3    7     1       0.1129423649E-01       4    5    1         0.3620940785E+00      0.1365486949E+01
          0                 2           2             3    7     1      -0.1091556966E-02       4    5    1        -0.3620948379E-01      0.1264803034E+00
          0                 3           1             3    7     1       0.7459099572E-04       4    5    1         0.2539131396E-02      0.8733937315E-02

    ------------------------------------------------
       NWT REQUIRED            3 OUTER ITERATIONS 
       AND A TOTAL OF          5 INNER ITERATIONS.
    ------------------------------------------------

 NO OUTPUT CONTROL FOR STRESS PERIOD   38   TIME STEP   13
 
 SOLVING FOR HEAD 
                                                   Max.-Head-Change                         Max.-Flux-Residual
  Residual-Control   Outer-Iter.   Inner-Iter.     Column Row Layer    Maximum-Head-Change  Column Row Layer    Maximum-Flux-Residual          L2-NORM 
          0                 1           2             3    7     1       0.1118163166E-01       4    5    1         0.3568505678E+00      0.1357284954E+01
          0                 2           2             3    7     1      -0.1080577513E-02       4    5    1        -0.3568512924E-01      0.1255901465E+00
          0                 3           1             3    7     1       0.7384419593E-04       4    5    1         0.2502436803E-02      0.8670980956E-02

    ------------------------------------------------
       NWT REQUIRED            3 OUTER ITERATIONS 
       AND A TOTAL OF          5 INNER ITERATIONS.
    ------------------------------------------------

 NO OUTPUT CONTROL FOR STRESS PERIOD   38   TIME STEP   14
 
 SOLVING FOR HEAD 
                                                   Max.-Head-Change                         Max.-Flux-Residual
  Residual-Control   Outer-Iter.   Inner-Iter.     Column Row Layer    Maximum-Head-Change  Column Row Layer    Maximum-Flux-Residual          L2-NORM 
          0                 1           2             3    7     1       0.1107143721E-01       4    5    1         0.3518011098E+00      0.1349254848E+01
          0                 2           2             3    7     1      -0.1069834447E-02       4    5    1        -0.3518018016E-01      0.1247208171E+00
          0                 3           1             3    7     1       0.7311342377E-04       4    5    1         0.2467099063E-02      0.8609430784E-02

    ------------------------------------------------
       NWT REQUIRED            3 OUTER ITERATIONS 
       AND A TOTAL OF          5 INNER ITERATIONS.
    ------------------------------------------------

 NO OUTPUT CONTROL FOR STRESS PERIOD   38   TIME STEP   15
 
 SOLVING FOR HEAD 
                                                   Max.-Head-Change                         Max.-Flux-Residual
  Residual-Control   Outer-Iter.   Inner-Iter.     Column Row Layer    Maximum-Head-Change  Column Row Layer    Maximum-Flux-Residual          L2-NORM 
          0                 1           2             3    7     1       0.1096333957E-01       4    5    1         0.3469364757E+00      0.1341400365E+01
          0                 2           2             3    7     1      -0.1059297362E-02       4    5    1        -0.3469371369E-01      0.1238726109E+00
          0                 3           1             3    7     1       0.7239660788E-04       4    5    1         0.2433053788E-02      0.8549451652E-02

    ------------------------------------------------
       NWT REQUIRED            3 OUTER ITERATIONS 
       AND A TOTAL OF          5 INNER ITERATIONS.
    ------------------------------------------------

 NO OUTPUT CONTROL FOR STRESS PERIOD   38   TIME STEP   16
 
 SOLVING FOR HEAD 
                                                   Max.-Head-Change                         Max.-Flux-Residual
  Residual-Control   Outer-Iter.   Inner-Iter.     Column Row Layer    Maximum-Head-Change  Column Row Layer    Maximum-Flux-Residual          L2-NORM 
          0                 1           2             3    7     1       0.1085751652E-01       4    5    1         0.3422405905E+00      0.1333703013E+01
          0                 2           2             3    7     1      -0.1048854181E-02       4    5    1        -0.3422412223E-01      0.1189981287E+00
          0                 3           1             3    7     1       0.7170219738E-04       4    5    1         0.2400191972E-02      0.8190748741E-02

    ------------------------------------------------
       NWT REQUIRED            3 OUTER ITERATIONS 
       AND A TOTAL OF          5 INNER ITERATIONS.
    ------------------------------------------------

 NO OUTPUT CONTROL FOR STRESS PERIOD   38   TIME STEP   17
 
 SOLVING FOR HEAD 
                                                   Max.-Head-Change                         Max.-Flux-Residual
  Residual-Control   Outer-Iter.   Inner-Iter.     Column Row Layer    Maximum-Head-Change  Column Row Layer    Maximum-Flux-Residual          L2-NORM 
          0                 1           2             3    7     1       0.1075393133E-01       4    5    1         0.3377132340E+00      0.1326226607E+01
          0                 2           2             3    7     1      -0.1038733477E-02       4    5    1        -0.3377138384E-01      0.1185854459E+00
          0                 3           1             3    7     1       0.7101727132E-04       4    5    1         0.2368506313E-02      0.8140495220E-02

    ------------------------------------------------
       NWT REQUIRED            3 OUTER ITERATIONS 
       AND A TOTAL OF          5 INNER ITERATIONS.
    ------------------------------------------------

 NO OUTPUT CONTROL FOR STRESS PERIOD   38   TIME STEP   18
 
 SOLVING FOR HEAD 
                                                   Max.-Head-Change                         Max.-Flux-Residual
  Residual-Control   Outer-Iter.   Inner-Iter.     Column Row Layer    Maximum-Head-Change  Column Row Layer    Maximum-Flux-Residual          L2-NORM 
          0                 1           2             3    7     1       0.1065240320E-01       4    5    1         0.3333394025E+00      0.1318762859E+01
          0                 2           2             3    7     1      -0.1028829188E-02       4    5    1        -0.3333399810E-01      0.1177802541E+00
          0                 3           1             3    7     1       0.7034366440E-04       4    5    1         0.2337893806E-02      0.8083538779E-02

    ------------------------------------------------
       NWT REQUIRED            3 OUTER ITERATIONS 
       AND A TOTAL OF          5 INNER ITERATIONS.
    ------------------------------------------------

 NO OUTPUT CONTROL FOR STRESS PERIOD   38   TIME STEP   19
 
 SOLVING FOR HEAD 
                                                   Max.-Head-Change                         Max.-Flux-Residual
  Residual-Control   Outer-Iter.   Inner-Iter.     Column Row Layer    Maximum-Head-Change  Column Row Layer    Maximum-Flux-Residual          L2-NORM 
          0                 1           2             3    7     1       0.1055308277E-01       4    5    1         0.3291264954E+00      0.1311447088E+01
          0                 2           2             3    7     1      -0.1019142708E-02       4    5    1        -0.3291270493E-01      0.1169936810E+00
          0                 3           1             3    7     1       0.6968478980E-04       4    5    1         0.2308406863E-02      0.8027921298E-02

    ------------------------------------------------
       NWT REQUIRED            3 OUTER ITERATIONS 
       AND A TOTAL OF          5 INNER ITERATIONS.
    ------------------------------------------------

 NO OUTPUT CONTROL FOR STRESS PERIOD   38   TIME STEP   20
 
 SOLVING FOR HEAD 
                                                   Max.-Head-Change                         Max.-Flux-Residual
  Residual-Control   Outer-Iter.   Inner-Iter.     Column Row Layer    Maximum-Head-Change  Column Row Layer    Maximum-Flux-Residual          L2-NORM 
          0                 1           2             3    7     1       0.1045564854E-01       4    5    1         0.3250526330E+00      0.1304258783E+01
          0                 2           2             3    7     1      -0.1009642422E-02       4    5    1        -0.3250531638E-01      0.1162240779E+00
          0                 3           1             3    7     1       0.6903850385E-04       4    5    1         0.2279892234E-02      0.7973635401E-02

    ------------------------------------------------
       NWT REQUIRED            3 OUTER ITERATIONS 
       AND A TOTAL OF          5 INNER ITERATIONS.
    ------------------------------------------------

 NO OUTPUT CONTROL FOR STRESS PERIOD   38   TIME STEP   21
 
 SOLVING FOR HEAD 
                                                   Max.-Head-Change                         Max.-Flux-Residual
  Residual-Control   Outer-Iter.   Inner-Iter.     Column Row Layer    Maximum-Head-Change  Column Row Layer    Maximum-Flux-Residual          L2-NORM 
          0                 1           2             3    7     1       0.1036027651E-01       4    5    1         0.3211187031E+00      0.1297201542E+01
          0                 2           2             3    7     1      -0.1000345446E-02       4    5    1        -0.3211192119E-01      0.1154711991E+00
          0                 3           1             3    7     1       0.6840597287E-04       4    5    1         0.2252356169E-02      0.7920403820E-02

    ------------------------------------------------
       NWT REQUIRED            3 OUTER ITERATIONS 
       AND A TOTAL OF          5 INNER ITERATIONS.
    ------------------------------------------------

 NO OUTPUT CONTROL FOR STRESS PERIOD   38   TIME STEP   22
 
 SOLVING FOR HEAD 
                                                   Max.-Head-Change                         Max.-Flux-Residual
  Residual-Control   Outer-Iter.   Inner-Iter.     Column Row Layer    Maximum-Head-Change  Column Row Layer    Maximum-Flux-Residual          L2-NORM 
          0                 1           2             3    7     1       0.1026665231E-01       4    5    1         0.3173183950E+00      0.1290262794E+01
          0                 2           2             3    7     1      -0.9912208777E-03       4    5    1        -0.3173188832E-01      0.1147339729E+00
          0                 3           1             3    7     1       0.6778510267E-04       4    5    1         0.2225754546E-02      0.7868472956E-02

    ------------------------------------------------
       NWT REQUIRED            3 OUTER ITERATIONS 
       AND A TOTAL OF          5 INNER ITERATIONS.
    ------------------------------------------------

 NO OUTPUT CONTROL FOR STRESS PERIOD   38   TIME STEP   23
 
 SOLVING FOR HEAD 
                                                   Max.-Head-Change                         Max.-Flux-Residual
  Residual-Control   Outer-Iter.   Inner-Iter.     Column Row Layer    Maximum-Head-Change  Column Row Layer    Maximum-Flux-Residual          L2-NORM 
          0                 1           2             3    7     1       0.1017495516E-01       4    5    1         0.3136455847E+00      0.1283445027E+01
          0                 2           2             3    7     1      -0.9822863387E-03       4    5    1        -0.3136460531E-01      0.1140126547E+00
          0                 3           1             3    7     1       0.6717708679E-04       4    5    1         0.2200044528E-02      0.7817584620E-02

    ------------------------------------------------
       NWT REQUIRED            3 OUTER ITERATIONS 
       AND A TOTAL OF          5 INNER ITERATIONS.
    ------------------------------------------------

 NO OUTPUT CONTROL FOR STRESS PERIOD   38   TIME STEP   24
 
 SOLVING FOR HEAD 
                                                   Max.-Head-Change                         Max.-Flux-Residual
  Residual-Control   Outer-Iter.   Inner-Iter.     Column Row Layer    Maximum-Head-Change  Column Row Layer    Maximum-Flux-Residual          L2-NORM 
          0                 1           2             3    7     1       0.1008511997E-01       4    8    1         0.3106925009E+00      0.1276741357E+01
          0                 2           2             3    7     1      -0.9735350171E-03       4    5    1        -0.3100948854E-01      0.1133064648E+00
          0                 3           1             3    7     1       0.6658147708E-04       4    5    1         0.2175185323E-02      0.7767840996E-02

    ------------------------------------------------
       NWT REQUIRED            3 OUTER ITERATIONS 
       AND A TOTAL OF          5 INNER ITERATIONS.
    ------------------------------------------------

 NO OUTPUT CONTROL FOR STRESS PERIOD   38   TIME STEP   25
 
 SOLVING FOR HEAD 
                                                   Max.-Head-Change                         Max.-Flux-Residual
  Residual-Control   Outer-Iter.   Inner-Iter.     Column Row Layer    Maximum-Head-Change  Column Row Layer    Maximum-Flux-Residual          L2-NORM 
          0                 1           2             3    7     1       0.9997083901E-02       4    8    1         0.3091539601E+00      0.1270146430E+01
          0                 2           2             3    7     1      -0.9649608471E-03       4    5    1        -0.3066597468E-01      0.1126148134E+00
          0                 3           1             3    7     1       0.6599785913E-04       4    5    1         0.2151137506E-02      0.7719154795E-02

    ------------------------------------------------
       NWT REQUIRED            3 OUTER ITERATIONS 
       AND A TOTAL OF          5 INNER ITERATIONS.
    ------------------------------------------------

 NO OUTPUT CONTROL FOR STRESS PERIOD   38   TIME STEP   26
 
 SOLVING FOR HEAD 
                                                   Max.-Head-Change                         Max.-Flux-Residual
  Residual-Control   Outer-Iter.   Inner-Iter.     Column Row Layer    Maximum-Head-Change  Column Row Layer    Maximum-Flux-Residual          L2-NORM 
          0                 1           2             3    7     1       0.9910545301E-02       4    8    1         0.3076512712E+00      0.1263652103E+01
          0                 2           2             3    7     1      -0.9565341931E-03       4    5    1        -0.3033354469E-01      0.1119363484E+00
          0                 3           1             3    7     1       0.6542422395E-04       4    5    1         0.2127864778E-02      0.7671378677E-02

    ------------------------------------------------
       NWT REQUIRED            3 OUTER ITERATIONS 
       AND A TOTAL OF          5 INNER ITERATIONS.
    ------------------------------------------------

 NO OUTPUT CONTROL FOR STRESS PERIOD   38   TIME STEP   27
 
 SOLVING FOR HEAD 
                                                   Max.-Head-Change                         Max.-Flux-Residual
  Residual-Control   Outer-Iter.   Inner-Iter.     Column Row Layer    Maximum-Head-Change  Column Row Layer    Maximum-Flux-Residual          L2-NORM 
          0                 1           2             3    7     1       0.9825450792E-02       4    8    1         0.3061813410E+00      0.1257249659E+01
          0                 2           2             3    7     1      -0.9482501020E-03       4    5    1        -0.3001170386E-01      0.1112709760E+00
          0                 3           1             3    7     1       0.6486022610E-04       4    5    1         0.2105332568E-02      0.7624550955E-02

    ------------------------------------------------
       NWT REQUIRED            3 OUTER ITERATIONS 
       AND A TOTAL OF          5 INNER ITERATIONS.
    ------------------------------------------------

 NO OUTPUT CONTROL FOR STRESS PERIOD   38   TIME STEP   28
 
 SOLVING FOR HEAD 
                                                   Max.-Head-Change                         Max.-Flux-Residual
  Residual-Control   Outer-Iter.   Inner-Iter.     Column Row Layer    Maximum-Head-Change  Column Row Layer    Maximum-Flux-Residual          L2-NORM 
          0                 1           2             3    7     1       0.9742236019E-02       4    8    1         0.3047538914E+00      0.1250949625E+01
          0                 2           2             3    7     1      -0.9401506530E-03       4    5    1        -0.2969995555E-01      0.1106187601E+00
          0                 3           1             3    7     1       0.6430874235E-04       4    5    1         0.2083506133E-02      0.7578728167E-02

    ------------------------------------------------
       NWT REQUIRED            3 OUTER ITERATIONS 
       AND A TOTAL OF          5 INNER ITERATIONS.
    ------------------------------------------------

 NO OUTPUT CONTROL FOR STRESS PERIOD   38   TIME STEP   29
 
 SOLVING FOR HEAD 
                                                   Max.-Head-Change                         Max.-Flux-Residual
  Residual-Control   Outer-Iter.   Inner-Iter.     Column Row Layer    Maximum-Head-Change  Column Row Layer    Maximum-Flux-Residual          L2-NORM 
          0                 1           2             3    7     1       0.9660357736E-02       4    8    1         0.3033464446E+00      0.1244736942E+01
          0                 2           2             3    7     1      -0.9321827530E-03       4    5    1        -0.2939786738E-01      0.1099790092E+00
          0                 3           1             3    7     1       0.6376616272E-04       4    5    1         0.2062355129E-02      0.7533781323E-02

    ------------------------------------------------
       NWT REQUIRED            3 OUTER ITERATIONS 
       AND A TOTAL OF          5 INNER ITERATIONS.
    ------------------------------------------------

 NO OUTPUT CONTROL FOR STRESS PERIOD   38   TIME STEP   30



 STREAM LISTING     PERIOD     38   STEP       30

 LAYER ROW COL. STREAM  RCH.  FLOW INTO     FLOW TO   FLOW OUT OF   OVRLND.     DIRECT     STREAM       STREAM     STREAM     STREAM   STREAMBED  STREAMBED
                SEG.NO.  NO.  STRM. RCH.    AQUIFER    STRM. RCH.    RUNOFF     PRECIP       ET          HEAD       DEPTH      WIDTH   CONDCTNC.   GRADIENT

   1    1    1     1     1    7.1248E+00  1.2038E-01   7.0044E+00  0.000E+00  0.000E+00  0.000E+00  1.09385E+03  8.024E-01  7.035E+00  3.166E-02  1.267E+00
   1    2    2     1     2    7.0044E+00  1.8491E-01   6.8195E+00  0.000E+00  0.000E+00  0.000E+00  1.08886E+03  7.976E-01  6.956E+00  4.869E-02  1.266E+00
   1    3    3     1     3    6.8195E+00  1.5635E-01   6.6631E+00  0.000E+00  0.000E+00  0.000E+00  1.08321E+03  7.928E-01  6.870E+00  4.122E-02  1.264E+00
   1    3    4     1     4    6.6631E+00  1.4286E-01   6.5203E+00  0.000E+00  0.000E+00  0.000E+00  1.07820E+03  7.886E-01  6.794E+00  3.771E-02  1.263E+00
   1    4    5     2     1    4.5203E+00  2.6715E-01   4.2531E+00  0.000E+00  0.000E+00  0.000E+00  1.07236E+03  4.250E-01  1.200E+01  7.800E-02  1.142E+00
   1    5    6     2     2    4.2531E+00  2.0467E-01   4.0485E+00  0.000E+00  0.000E+00  0.000E+00  1.06692E+03  4.112E-01  1.200E+01  6.000E-02  1.137E+00
   1    6    6     2     3    4.0485E+00  2.0393E-01   3.8445E+00  0.000E+00  0.000E+00  0.000E+00  1.06219E+03  3.989E-01  1.200E+01  6.000E-02  1.133E+00
   1    7    6     2     4    3.8445E+00  2.0319E-01   3.6413E+00  0.000E+00  0.000E+00  0.000E+00  1.05746E+03  3.864E-01  1.200E+01  6.000E-02  1.129E+00
   1    8    6     2     5    3.6413E+00  2.0242E-01   3.4389E+00  0.000E+00  0.000E+00  0.000E+00  1.05273E+03  3.737E-01  1.200E+01  6.000E-02  1.125E+00
   1    3    5     3     1    2.0000E+00  2.8252E-01   1.7175E+00  0.000E+00  0.000E+00  0.000E+00  1.07555E+03  1.909E+00  9.636E+00  7.227E-02  1.955E+00
   1    3    6     3     2    1.7175E+00  2.4905E-01   1.4684E+00  0.000E+00  0.000E+00  0.000E+00  1.07264E+03  1.727E+00  8.909E+00  6.682E-02  1.864E+00
   1    3    7     3     3    1.4684E+00  1.9718E-01   1.2712E+00  0.000E+00  0.000E+00  0.000E+00  1.06987E+03  1.555E+00  8.218E+00  5.547E-02  1.777E+00
   1    4    8     3     4    1.2712E+00  2.2567E-01   1.0456E+00  0.000E+00  0.000E+00  0.000E+00  1.06682E+03  1.364E+00  7.455E+00  6.709E-02  1.682E+00
   1    5    8     3     5    1.0456E+00  1.5790E-01   8.8768E-01  0.000E+00  0.000E+00  0.000E+00  1.06362E+03  1.164E+00  6.655E+00  4.991E-02  1.582E+00
   1    6    8     3     6    8.8768E-01  5.5980E-02   8.3170E-01  0.000E+00  0.000E+00  0.000E+00  1.06158E+03  1.036E+00  6.145E+00  1.844E-02  1.518E+00
   1    5   10     4     1    1.0000E+01  9.0919E-02   9.9091E+00  0.000E+00  0.000E+00  0.000E+00  1.07836E+03  6.368E-01  1.000E+01  2.500E-02  1.212E+00
   1    5    9     4     2    9.9091E+00  1.8158E-01   9.7275E+00  0.000E+00  0.000E+00  0.000E+00  1.07154E+03  6.315E-01  1.000E+01  5.000E-02  1.211E+00
   1    6    8     4     3    9.7275E+00  1.2689E-01   9.6006E+00  0.000E+00  0.000E+00  0.000E+00  1.06381E+03  6.256E-01  1.000E+01  3.500E-02  1.209E+00
   1    6    8     5     1    1.0432E+01  2.2686E-01   1.0205E+01  0.000E+00  0.000E+00  0.000E+00  1.05868E+03  6.790E-01  1.542E+01  6.166E-02  1.226E+00
   1    7    7     5     2    1.0205E+01  2.7894E-01   9.9265E+00  0.000E+00  0.000E+00  0.000E+00  1.05417E+03  6.732E-01  1.519E+01  7.594E-02  1.224E+00
   1    8    7     5     3    9.9265E+00  1.9221E-01   9.7343E+00  0.000E+00  0.000E+00  0.000E+00  1.04992E+03  6.676E-01  1.497E+01  5.241E-02  1.223E+00
   1    8    6     5     4    9.7343E+00  1.3577E-01   9.5985E+00  0.000E+00  0.000E+00  0.000E+00  1.04691E+03  6.637E-01  1.482E+01  3.706E-02  1.221E+00
   1    9    6     6     1    1.3037E+01  2.2931E-01   1.2808E+01  0.000E+00  0.000E+00  0.000E+00  1.04355E+03  8.218E-01  1.200E+01  6.000E-02  1.274E+00
   1   10    7     6     2    1.2808E+01  2.2878E-01   1.2579E+01  0.000E+00  0.000E+00  0.000E+00  1.03899E+03  8.131E-01  1.200E+01  6.000E-02  1.271E+00
   1   11    7     6     3    1.2579E+01  2.2825E-01   1.2351E+01  0.000E+00  0.000E+00  0.000E+00  1.03444E+03  8.042E-01  1.200E+01  6.000E-02  1.268E+00
   1   12    7     6     4    1.2351E+01  2.2772E-01   1.2123E+01  0.000E+00  0.000E+00  0.000E+00  1.02989E+03  7.954E-01  1.200E+01  6.000E-02  1.265E+00
   1   13    7     6     5    1.2123E+01  5.0168E-03   1.2118E+01  0.000E+00  0.000E+00  0.000E+00  1.02670E+03  7.908E-01  1.200E+01  2.400E-02  6.968E-02
   1   14    9     7     1    1.5000E+02  1.3952E+00   1.4860E+02  0.000E+00  0.000E+00  0.000E+00  1.03987E+03  2.288E+00  5.529E+01  5.593E-01  8.315E-01
   1   13    8     7     2    1.4860E+02  2.0218E+00   1.4658E+02  0.000E+00  0.000E+00  0.000E+00  1.03478E+03  2.278E+00  5.525E+01  6.147E-01  1.096E+00
   1   13    7     7     3    1.4658E+02  1.7849E+00   1.4480E+02  0.000E+00  0.000E+00  0.000E+00  1.02969E+03  2.268E+00  5.521E+01  5.583E-01  1.066E+00
   1   13    6     8     1    1.5692E+02  1.1562E+00   1.5576E+02  0.000E+00  0.000E+00  0.000E+00  1.02474E+03  2.861E+00  4.148E+01  4.227E-01  9.117E-01
   1   13    5     8     2    1.5576E+02  4.0462E-01   1.5536E+02  0.000E+00  0.000E+00  0.000E+00  1.01848E+03  2.856E+00  4.141E+01  4.219E-01  3.197E-01
   1   13    4     8     3    1.5536E+02 -1.6369E+00   1.5699E+02  0.000E+00  0.000E+00  0.000E+00  1.01223E+03  2.860E+00  4.147E+01  4.226E+00 -1.291E-01
   1   13    3     8     4    1.5699E+02 -3.2534E+00   1.6025E+02  0.000E+00  0.000E+00  0.000E+00  1.00600E+03  2.876E+00  4.171E+01  4.250E+00 -2.551E-01
   1   13    2     8     5    1.6025E+02 -2.4853E+00   1.6273E+02  0.000E+00  0.000E+00  0.000E+00  9.99771E+02  2.896E+00  4.199E+01  4.279E+00 -1.936E-01
   1   13    1     8     6    1.6273E+02 -1.9613E+00   1.6469E+02  0.000E+00  0.000E+00  0.000E+00  9.94786E+02  2.911E+00  4.221E+01  2.581E+00 -2.533E-01
   1    8    6     9     1    0.0000E+00  0.0000E+00   0.0000E+00  0.000E+00  0.000E+00  0.000E+00  1.07875E+03  0.000E+00  4.000E+00  0.000E+00  1.000E+00
   1    8    5     9     2    0.0000E+00  0.0000E+00   0.0000E+00  0.000E+00  0.000E+00  0.000E+00  1.07825E+03  0.000E+00  4.000E+00  0.000E+00  1.000E+00





UNSATURATED ZONE PACKAGE VOLUMETRIC BUDGET FOR  TIME STEP    30 STRESS PERIOD   38
  ------------------------------------------------------------------------------



     CUMULATIVE VOLUMES      L**3       RATES FOR THIS TIME STEP      L**3/T
     ------------------                 ------------------------

           IN:                                      IN:
           ---                                      ---
        INFILTRATION =  1548902286.4156          INFILTRATION =           0.8475

          OUT:                                     OUT:
          ----                                     ----
              UZF ET =  1286096123.3734                UZF ET =           0.7500
        UZF RECHARGE =    63730722.0785          UZF RECHARGE =           0.2110

            IN - OUT =   199075440.9638              IN - OUT =          -0.1135

          STORAGE:                                 STORAGE:
          --------                                 --------
      STORAGE CHANGE =   199076614.2754        STORAGE CHANGE =          -0.1135

 PERCENT DISCREPANCY IS DIFFERENCE BETWEEN IN-OUT MINUS CHANGE IN STORAGE
 DIVIDED BY THE AVERAGE OF IN AND OUT TIMES 100

 PERCENT DISCREPANCY =          -0.00     PERCENT DISCREPANCY =           0.00






1
  VOLUMETRIC BUDGET FOR AGRICULTURAL FIELDS AT  END OF TIME STEP   30, STRESS PERIOD  38
  ------------------------------------------------------------------------------

     CUMULATIVE VOLUMES      L**3       RATES FOR THIS TIME STEP      L**3/T
     ------------------                 ------------------------

           IN:                                      IN:
           ---                                      ---
               AG WELLS  =   964111616.0000                 AG WELLS  =           0.0000
      DIVERSION SEGMENTS =   502246304.0000        DIVERSION SEGMENTS =           0.0000
           GW IRRIGATION =           0.0000             GW IRRIGATION =           0.0000
           SW IRRIGATION =           0.0000             SW IRRIGATION =           0.0000
        SYSTEM LOSSES GW =           0.0000          SYSTEM LOSSES GW =           0.0000
        SYSTEM LOSSES SW =           0.0000          SYSTEM LOSSES SW =           0.0000

                TOTAL IN =  1466357888.0000                  TOTAL IN =           0.0000

          OUT:                                     OUT:
          ----                                     ----
               AG WELLS  =           0.0000                 AG WELLS  =           0.0000
      DIVERSION SEGMENTS =           0.0000        DIVERSION SEGMENTS =           0.0000
           GW IRRIGATION =   964111616.0000             GW IRRIGATION =           0.0000
           SW IRRIGATION =   502255776.0000             SW IRRIGATION =           0.0000
        SYSTEM LOSSES GW =           0.0000          SYSTEM LOSSES GW =           0.0000
        SYSTEM LOSSES SW =           0.0000          SYSTEM LOSSES SW =           0.0000

               TOTAL OUT =  1466367360.0000                 TOTAL OUT =           0.0000

                IN - OUT =       -9472.0000                  IN - OUT =           0.0000

     PERCENT DISCREPANCY =          -0.00         PERCENT DISCREPANCY =           0.00



1
  VOLUMETRIC BUDGET FOR ENTIRE MODEL AT END OF TIME STEP   30, STRESS PERIOD  38
  ------------------------------------------------------------------------------

     CUMULATIVE VOLUMES      L**3       RATES FOR THIS TIME STEP      L**3/T
     ------------------                 ------------------------

           IN:                                      IN:
           ---                                      ---
             STORAGE     =  1439948544.0000               STORAGE     =           3.3933
       CONSTANT HEAD     =           0.0000         CONSTANT HEAD     =           0.0000
     HEAD DEP BOUNDS     =    28097856.0000       HEAD DEP BOUNDS     =           0.2898
      STREAM LEAKAGE     =  1160418048.0000        STREAM LEAKAGE     =          11.7691
        UZF RECHARGE     =    63730716.0000          UZF RECHARGE     =           0.2110
               GW ET     =           0.0000                 GW ET     =           0.0000
     SURFACE LEAKAGE     =           0.0000       SURFACE LEAKAGE     =           0.0000
           AG WELLS      =           0.0000             AG WELLS      =           0.0000

                TOTAL IN =  2692195072.0000                  TOTAL IN =          15.6632

          OUT:                                     OUT:
          ----                                     ----
             STORAGE     =   733891456.0000               STORAGE     =           6.0398
       CONSTANT HEAD     =           0.0000         CONSTANT HEAD     =           0.0000
     HEAD DEP BOUNDS     =    28040918.0000       HEAD DEP BOUNDS     =           0.2867
      STREAM LEAKAGE     =   966163456.0000        STREAM LEAKAGE     =           9.3369
        UZF RECHARGE     =           0.0000          UZF RECHARGE     =           0.0000
               GW ET     =           0.0000                 GW ET     =           0.0000
     SURFACE LEAKAGE     =           0.0000       SURFACE LEAKAGE     =           0.0000
           AG WELLS      =   964111616.0000             AG WELLS      =           0.0000

               TOTAL OUT =  2692207360.0000                 TOTAL OUT =          15.6634

                IN - OUT =      -12288.0000                  IN - OUT =      -1.9836E-04

     PERCENT DISCREPANCY =          -0.00         PERCENT DISCREPANCY =          -0.00






         TIME SUMMARY AT END OF TIME STEP   30 IN STRESS PERIOD   38
                    SECONDS     MINUTES      HOURS       DAYS        YEARS
                    -----------------------------------------------------------
   TIME STEP LENGTH  87667.      1461.1      24.352      1.0147     2.77799E-03
 STRESS PERIOD TIME 2.63000E+06  43833.      730.56      30.440     8.33397E-02
         TOTAL TIME 9.73959E+07 1.62326E+06  27054.      1127.3      3.0863    
1
1
                            STRESS PERIOD NO.   39, LENGTH =   2630000.    
                            -----------------------------------------------

                              NUMBER OF TIME STEPS =    30

                               MULTIPLIER FOR DELT =     1.000

                            INITIAL TIME STEP SIZE =   87666.66    

 REUSING NON-PARAMETER GHB CELLS FROM LAST STRESS PERIOD

      2 GHB CELLS

 REUSING STREAM SEGMENT DATA FROM LAST STRESS PERIOD



            AREAL INFILTRATION RATE
 READING ON UNIT   19 WITH FORMAT: (FREE)              

            1           2           3           4           5           6           7           8           9          10
 ........................................................................................................................
   1   1.0000E-10  2.0000E-10   0.000       0.000       0.000       0.000       0.000       0.000       0.000       0.000    
   2   2.0000E-10  1.0000E-10  2.0000E-10   0.000       0.000      8.0000E-10  8.0000E-10  5.0000E-10   0.000       0.000    
   3    0.000      5.0000E-10  1.0000E-10  1.0000E-10  8.0000E-10  8.0000E-10  5.0000E-10  5.0000E-10   0.000       0.000    
   4   8.0000E-10  5.0000E-10  1.0000E-10  1.0000E-10  1.0000E-10  1.0000E-10  1.0000E-10  1.0000E-10  2.0000E-10   0.000    
   5   8.0000E-10  5.0000E-10  1.0000E-10  1.0000E-10  1.0000E-10  1.0000E-10  1.0000E-10  1.0000E-10  1.0000E-10  1.0000E-10
   6   8.0000E-10  5.0000E-10  5.0000E-10  2.0000E-10  2.0000E-10  1.0000E-10  1.0000E-10  1.0000E-10  1.0000E-10  5.0000E-10
   7   8.0000E-10  5.0000E-10  5.0000E-10  2.0000E-10  2.0000E-10  1.0000E-10  1.0000E-10  2.0000E-10  2.0000E-10   0.000    
   8    0.000      5.0000E-10  5.0000E-10  2.0000E-10  2.0000E-10  1.0000E-10  1.0000E-10  2.0000E-10  5.0000E-10   0.000    
   9    0.000      5.0000E-10  5.0000E-10  2.0000E-10  2.0000E-10  1.0000E-10  1.0000E-10  2.0000E-10  5.0000E-10   0.000    
  10    0.000      5.0000E-10  5.0000E-10  2.0000E-10  2.0000E-10  1.0000E-10  1.0000E-10  2.0000E-10  5.0000E-10  8.0000E-10
  11    0.000      1.0000E-10  1.0000E-10  1.0000E-10  1.0000E-10  1.0000E-10  1.0000E-10  2.0000E-10  5.0000E-10   0.000    
  12   1.0000E-10  1.0000E-10  1.0000E-10  1.0000E-10  1.0000E-10  1.0000E-10  1.0000E-10  1.0000E-10  2.0000E-10   0.000    
  13   1.0000E-10  1.0000E-10  2.0000E-10  2.0000E-10  2.0000E-10  2.0000E-10  2.0000E-10  1.0000E-10  1.0000E-10   0.000    
  14    0.000      2.0000E-10  5.0000E-10  5.0000E-10  5.0000E-10  5.0000E-10  5.0000E-10  2.0000E-10  1.0000E-10   0.000    
  15    0.000       0.000      8.0000E-10  8.0000E-10  8.0000E-10  8.0000E-10   0.000       0.000       0.000       0.000    

                  ET RATE =  5.000000E-10

 USING ET EXTINCTION DEPTH FROM PREVIOUS STRESS PERIOD. CURRENT PERIOD IS:      39

 USING EXTINCTION WATER CONTENT FROM PREVIOUS STRESS PERIOD. CURRENT PERIOD IS:      39

 USING AIR ENTRY PRESSURE FROM PREVIOUS STRESS PERIOD. CURRENT PERIOD IS:      39

 USING ROOT PRESSURE HEAD FROM PREVIOUS STRESS PERIOD. CURRENT PERIOD IS:      39

 USING ROOT ACTIVITY FROM PREVIOUS STRESS PERIOD. CURRENT PERIOD IS:      39

 PROCESSING AG STRESS PERIOD DATA

 READING AG STRESS PERIOD DATA

 READING IRRIGATION SEGMENT

 READING IRRIGATION WELL

 READING SUPPLEMENTAL WELL

 END PROCESSING AG STRESS PERIOD DATA OPTIONS
 
 SOLVING FOR HEAD 
                                                   Max.-Head-Change                         Max.-Flux-Residual
  Residual-Control   Outer-Iter.   Inner-Iter.     Column Row Layer    Maximum-Head-Change  Column Row Layer    Maximum-Flux-Residual          L2-NORM 
          0                 1           2             3    7     1       0.9580012529E-02       4    8    1         0.3019761952E+00      0.1238619560E+01
          0                 2           2             3    7     1      -0.9243655917E-03       4    5    1        -0.2910570253E-01      0.1093515563E+00
          0                 3           1             3    7     1       0.6323379459E-04       4    5    1         0.2041898270E-02      0.7489792513E-02

    ------------------------------------------------
       NWT REQUIRED            3 OUTER ITERATIONS 
       AND A TOTAL OF          5 INNER ITERATIONS.
    ------------------------------------------------

 NO OUTPUT CONTROL FOR STRESS PERIOD   39   TIME STEP    1
 
 SOLVING FOR HEAD 
                                                   Max.-Head-Change                         Max.-Flux-Residual
  Residual-Control   Outer-Iter.   Inner-Iter.     Column Row Layer    Maximum-Head-Change  Column Row Layer    Maximum-Flux-Residual          L2-NORM 
          0                 1           2             3    7     1       0.9501149826E-02       4    8    1         0.3006211733E+00      0.1232578655E+01
          0                 2           2             3    7     1      -0.9166943378E-03       4    5    1        -0.2882157865E-01      0.1087351080E+00
          0                 3           1             3    7     1       0.6271130427E-04       4    5    1         0.2022003550E-02      0.7446553019E-02

    ------------------------------------------------
       NWT REQUIRED            3 OUTER ITERATIONS 
       AND A TOTAL OF          5 INNER ITERATIONS.
    ------------------------------------------------

 NO OUTPUT CONTROL FOR STRESS PERIOD   39   TIME STEP    2
 
 SOLVING FOR HEAD 
                                                   Max.-Head-Change                         Max.-Flux-Residual
  Residual-Control   Outer-Iter.   Inner-Iter.     Column Row Layer    Maximum-Head-Change  Column Row Layer    Maximum-Flux-Residual          L2-NORM 
          0                 1           2             3    7     1       0.9423722990E-02       4    8    1         0.2992988833E+00      0.1225709965E+01
          0                 2           2             3    7     1      -0.9091639967E-03       5    6    1        -0.2866645515E-01      0.1080283206E+00
          0                 3           1             3    7     1       0.6219836891E-04       5    6    1         0.2016594826E-02      0.7396943046E-02

    ------------------------------------------------
       NWT REQUIRED            3 OUTER ITERATIONS 
       AND A TOTAL OF          5 INNER ITERATIONS.
    ------------------------------------------------

 NO OUTPUT CONTROL FOR STRESS PERIOD   39   TIME STEP    3
 
 SOLVING FOR HEAD 
                                                   Max.-Head-Change                         Max.-Flux-Residual
  Residual-Control   Outer-Iter.   Inner-Iter.     Column Row Layer    Maximum-Head-Change  Column Row Layer    Maximum-Flux-Residual          L2-NORM 
          0                 1           2             3    7     1       0.9347444957E-02       4    8    1         0.2979945320E+00      0.1219497303E+01
          0                 2           2             3    7     1      -0.9017469245E-03       5    6    1        -0.2863045894E-01      0.1073953156E+00
          0                 3           1             3    7     1       0.6169309455E-04       5    6    1         0.2014056909E-02      0.7352540221E-02

    ------------------------------------------------
       NWT REQUIRED            3 OUTER ITERATIONS 
       AND A TOTAL OF          5 INNER ITERATIONS.
    ------------------------------------------------

 NO OUTPUT CONTROL FOR STRESS PERIOD   39   TIME STEP    4
 
 SOLVING FOR HEAD 
                                                   Max.-Head-Change                         Max.-Flux-Residual
  Residual-Control   Outer-Iter.   Inner-Iter.     Column Row Layer    Maximum-Head-Change  Column Row Layer    Maximum-Flux-Residual          L2-NORM 
          0                 1           2             3    7     1       0.9272761075E-02       4    7    1         0.2970244731E+00      0.1213708282E+01
          0                 2           2             3    7     1      -0.8944860256E-03       5    6    1        -0.2858977778E-01      0.1068110908E+00
          0                 3           1             3    7     1       0.6119841807E-04       5    6    1         0.2011190183E-02      0.7311634048E-02

    ------------------------------------------------
       NWT REQUIRED            3 OUTER ITERATIONS 
       AND A TOTAL OF          5 INNER ITERATIONS.
    ------------------------------------------------

 NO OUTPUT CONTROL FOR STRESS PERIOD   39   TIME STEP    5
 
 SOLVING FOR HEAD 
                                                   Max.-Head-Change                         Max.-Flux-Residual
  Residual-Control   Outer-Iter.   Inner-Iter.     Column Row Layer    Maximum-Head-Change  Column Row Layer    Maximum-Flux-Residual          L2-NORM 
          0                 1           2             3    7     1       0.9199141068E-02       4    7    1         0.2969016700E+00      0.1208003036E+01
          0                 2           2             3    7     1      -0.8873284496E-03       4    5    1        -0.2777018298E-01      0.1032390661E+00
          0                 3           1             3    7     1       0.6071100260E-04       4    5    1         0.1948474247E-02      0.7067524243E-02

    ------------------------------------------------
       NWT REQUIRED            3 OUTER ITERATIONS 
       AND A TOTAL OF          5 INNER ITERATIONS.
    ------------------------------------------------

 NO OUTPUT CONTROL FOR STRESS PERIOD   39   TIME STEP    6
 
 SOLVING FOR HEAD 
                                                   Max.-Head-Change                         Max.-Flux-Residual
  Residual-Control   Outer-Iter.   Inner-Iter.     Column Row Layer    Maximum-Head-Change  Column Row Layer    Maximum-Flux-Residual          L2-NORM 
          0                 1           2             3    7     1       0.9126794022E-02       4    7    1         0.2967284571E+00      0.1202471190E+01
          0                 2           2             3    7     1      -0.8802946796E-03       4    5    1        -0.2752721465E-01      0.1023958041E+00
          0                 3           1             3    7     1       0.6023254770E-04       4    5    1         0.1931623625E-02      0.6967122333E-02

    ------------------------------------------------
       NWT REQUIRED            3 OUTER ITERATIONS 
       AND A TOTAL OF          5 INNER ITERATIONS.
    ------------------------------------------------

 NO OUTPUT CONTROL FOR STRESS PERIOD   39   TIME STEP    7
 
 SOLVING FOR HEAD 
                                                   Max.-Head-Change                         Max.-Flux-Residual
  Residual-Control   Outer-Iter.   Inner-Iter.     Column Row Layer    Maximum-Head-Change  Column Row Layer    Maximum-Flux-Residual          L2-NORM 
          0                 1           2             3    7     1       0.9055691315E-02       4    7    1         0.2965353431E+00      0.1196851680E+01
          0                 2           2             3    7     1      -0.8733842074E-03       4    5    1        -0.2729273042E-01      0.1018582202E+00
          0                 3           1             3    7     1       0.5976170114E-04       4    5    1         0.1915206095E-02      0.6929754856E-02

    ------------------------------------------------
       NWT REQUIRED            3 OUTER ITERATIONS 
       AND A TOTAL OF          5 INNER ITERATIONS.
    ------------------------------------------------

 NO OUTPUT CONTROL FOR STRESS PERIOD   39   TIME STEP    8
 
 SOLVING FOR HEAD 
                                                   Max.-Head-Change                         Max.-Flux-Residual
  Residual-Control   Outer-Iter.   Inner-Iter.     Column Row Layer    Maximum-Head-Change  Column Row Layer    Maximum-Flux-Residual          L2-NORM 
          0                 1           2             3    7     1       0.8985794379E-02       4    7    1         0.2963062267E+00      0.1191315141E+01
          0                 2           2             3    7     1      -0.8665919528E-03       4    5    1        -0.2706685567E-01      0.1013302879E+00
          0                 3           1             3    7     1       0.5929886738E-04       4    5    1         0.1899390101E-02      0.6893111623E-02

    ------------------------------------------------
       NWT REQUIRED            3 OUTER ITERATIONS 
       AND A TOTAL OF          5 INNER ITERATIONS.
    ------------------------------------------------

 NO OUTPUT CONTROL FOR STRESS PERIOD   39   TIME STEP    9
 
 SOLVING FOR HEAD 
                                                   Max.-Head-Change                         Max.-Flux-Residual
  Residual-Control   Outer-Iter.   Inner-Iter.     Column Row Layer    Maximum-Head-Change  Column Row Layer    Maximum-Flux-Residual          L2-NORM 
          0                 1           2             3    7     1       0.8917068458E-02       4    7    1         0.2960482510E+00      0.1185845882E+01
          0                 2           2             3    7     1      -0.8599143722E-03       4    5    1        -0.2684831411E-01      0.1008106707E+00
          0                 3           1             3    7     1       0.5884381024E-04       4    5    1         0.1884086264E-02      0.6857068427E-02

    ------------------------------------------------
       NWT REQUIRED            3 OUTER ITERATIONS 
       AND A TOTAL OF          5 INNER ITERATIONS.
    ------------------------------------------------

 NO OUTPUT CONTROL FOR STRESS PERIOD   39   TIME STEP   10
 
 SOLVING FOR HEAD 
                                                   Max.-Head-Change                         Max.-Flux-Residual
  Residual-Control   Outer-Iter.   Inner-Iter.     Column Row Layer    Maximum-Head-Change  Column Row Layer    Maximum-Flux-Residual          L2-NORM 
          0                 1           2             3    7     1       0.8849482355E-02       4    7    1         0.2957681551E+00      0.1180442347E+01
          0                 2           2             3    7     1      -0.8533482702E-03       4    5    1        -0.2663660141E-01      0.1002993811E+00
          0                 3           1             3    7     1       0.5839631871E-04       4    5    1         0.1869259345E-02      0.6821632394E-02

    ------------------------------------------------
       NWT REQUIRED            3 OUTER ITERATIONS 
       AND A TOTAL OF          5 INNER ITERATIONS.
    ------------------------------------------------

 NO OUTPUT CONTROL FOR STRESS PERIOD   39   TIME STEP   11
 
 SOLVING FOR HEAD 
                                                   Max.-Head-Change                         Max.-Flux-Residual
  Residual-Control   Outer-Iter.   Inner-Iter.     Column Row Layer    Maximum-Head-Change  Column Row Layer    Maximum-Flux-Residual          L2-NORM 
          0                 1           2             3    7     1       0.8783002077E-02       4    7    1         0.2954505137E+00      0.1175106644E+01
          0                 2           2             3    7     1      -0.8468906614E-03       4    5    1        -0.2643198157E-01      0.9979642638E-01
          0                 3           1             3    7     1       0.5795618074E-04       4    5    1         0.1854928092E-02      0.6786795798E-02

    ------------------------------------------------
       NWT REQUIRED            3 OUTER ITERATIONS 
       AND A TOTAL OF          5 INNER ITERATIONS.
    ------------------------------------------------

 NO OUTPUT CONTROL FOR STRESS PERIOD   39   TIME STEP   12
 
 SOLVING FOR HEAD 
                                                   Max.-Head-Change                         Max.-Flux-Residual
  Residual-Control   Outer-Iter.   Inner-Iter.     Column Row Layer    Maximum-Head-Change  Column Row Layer    Maximum-Flux-Residual          L2-NORM 
          0                 1           2             3    7     1       0.8717596485E-02       4    7    1         0.2951034016E+00      0.1169840007E+01
          0                 2           2             3    7     1      -0.8405383511E-03       4    5    1        -0.2623327501E-01      0.9930212452E-01
          0                 3           1             3    7     1       0.5752318226E-04       4    5    1         0.1841009801E-02      0.6752599294E-02

    ------------------------------------------------
       NWT REQUIRED            3 OUTER ITERATIONS 
       AND A TOTAL OF          5 INNER ITERATIONS.
    ------------------------------------------------

 NO OUTPUT CONTROL FOR STRESS PERIOD   39   TIME STEP   13
 
 SOLVING FOR HEAD 
                                                   Max.-Head-Change                         Max.-Flux-Residual
  Residual-Control   Outer-Iter.   Inner-Iter.     Column Row Layer    Maximum-Head-Change  Column Row Layer    Maximum-Flux-Residual          L2-NORM 
          0                 1           2             3    7     1       0.8653232670E-02       4    7    1         0.2947193864E+00      0.1164625545E+01
          0                 2           2             3    7     1      -0.8342882841E-03       4    5    1        -0.2604084932E-01      0.9881475792E-01
          0                 3           1             3    7     1       0.5709711215E-04       4    5    1         0.1827530388E-02      0.6718873094E-02

    ------------------------------------------------
       NWT REQUIRED            3 OUTER ITERATIONS 
       AND A TOTAL OF          5 INNER ITERATIONS.
    ------------------------------------------------

 NO OUTPUT CONTROL FOR STRESS PERIOD   39   TIME STEP   14
 
 SOLVING FOR HEAD 
                                                   Max.-Head-Change                         Max.-Flux-Residual
  Residual-Control   Outer-Iter.   Inner-Iter.     Column Row Layer    Maximum-Head-Change  Column Row Layer    Maximum-Flux-Residual          L2-NORM 
          0                 1           2             3    7     1       0.8589881644E-02       4    7    1         0.2943139350E+00      0.1159476198E+01
          0                 2           2             3    7     1      -0.8281372742E-03       4    5    1        -0.2585356726E-01      0.9833513382E-01
          0                 3           1             3    7     1       0.5667776699E-04       4    5    1         0.1814410438E-02      0.6685724277E-02

    ------------------------------------------------
       NWT REQUIRED            3 OUTER ITERATIONS 
       AND A TOTAL OF          5 INNER ITERATIONS.
    ------------------------------------------------

 NO OUTPUT CONTROL FOR STRESS PERIOD   39   TIME STEP   15
 
 SOLVING FOR HEAD 
                                                   Max.-Head-Change                         Max.-Flux-Residual
  Residual-Control   Outer-Iter.   Inner-Iter.     Column Row Layer    Maximum-Head-Change  Column Row Layer    Maximum-Flux-Residual          L2-NORM 
          0                 1           2             3    7     1       0.8527514847E-02       4    7    1         0.2938799420E+00      0.1154383312E+01
          0                 2           2             3    7     1      -0.8220827274E-03       4    5    1        -0.2567186545E-01      0.9786348573E-01
          0                 3           1             3    7     1       0.5626496218E-04       4    5    1         0.1801680274E-02      0.6653170853E-02

    ------------------------------------------------
       NWT REQUIRED            3 OUTER ITERATIONS 
       AND A TOTAL OF          5 INNER ITERATIONS.
    ------------------------------------------------

 NO OUTPUT CONTROL FOR STRESS PERIOD   39   TIME STEP   16
 
 SOLVING FOR HEAD 
                                                   Max.-Head-Change                         Max.-Flux-Residual
  Residual-Control   Outer-Iter.   Inner-Iter.     Column Row Layer    Maximum-Head-Change  Column Row Layer    Maximum-Flux-Residual          L2-NORM 
          0                 1           2             3    7     1       0.8466102794E-02       4    7    1         0.2934102682E+00      0.1149346218E+01
          0                 2           2             3    7     1      -0.8161218987E-03       4    5    1        -0.2549466827E-01      0.9739846403E-01
          0                 3           1             3    7     1       0.5585850885E-04       4    5    1         0.1789264940E-02      0.6621065673E-02

    ------------------------------------------------
       NWT REQUIRED            3 OUTER ITERATIONS 
       AND A TOTAL OF          5 INNER ITERATIONS.
    ------------------------------------------------

 NO OUTPUT CONTROL FOR STRESS PERIOD   39   TIME STEP   17
 
 SOLVING FOR HEAD 
                                                   Max.-Head-Change                         Max.-Flux-Residual
  Residual-Control   Outer-Iter.   Inner-Iter.     Column Row Layer    Maximum-Head-Change  Column Row Layer    Maximum-Flux-Residual          L2-NORM 
          0                 1           2             3    7     1       0.8405859185E-02       4    7    1         0.2929136674E+00      0.1144370964E+01
          0                 2           2             3    7     1      -0.8102753907E-03       4    5    1        -0.2532170783E-01      0.9694133062E-01
          0                 3           1             3    7     1       0.5545981486E-04       4    5    1         0.1777145657E-02      0.6589554394E-02

    ------------------------------------------------
       NWT REQUIRED            3 OUTER ITERATIONS 
       AND A TOTAL OF          5 INNER ITERATIONS.
    ------------------------------------------------

 NO OUTPUT CONTROL FOR STRESS PERIOD   39   TIME STEP   18
 
 SOLVING FOR HEAD 
                                                   Max.-Head-Change                         Max.-Flux-Residual
  Residual-Control   Outer-Iter.   Inner-Iter.     Column Row Layer    Maximum-Head-Change  Column Row Layer    Maximum-Flux-Residual          L2-NORM 
          0                 1           2             3    7     1       0.8346269511E-02       4    7    1         0.2923980656E+00      0.1139441738E+01
          0                 2           2             3    7     1      -0.8044929690E-03       4    5    1        -0.2515420900E-01      0.9649021442E-01
          0                 3           1             3    7     1       0.5506546760E-04       4    5    1         0.1765408110E-02      0.6558476656E-02

    ------------------------------------------------
       NWT REQUIRED            3 OUTER ITERATIONS 
       AND A TOTAL OF          5 INNER ITERATIONS.
    ------------------------------------------------

 NO OUTPUT CONTROL FOR STRESS PERIOD   39   TIME STEP   19
 
 SOLVING FOR HEAD 
                                                   Max.-Head-Change                         Max.-Flux-Residual
  Residual-Control   Outer-Iter.   Inner-Iter.     Column Row Layer    Maximum-Head-Change  Column Row Layer    Maximum-Flux-Residual          L2-NORM 
          0                 1           2             3    7     1       0.8287793686E-02       4    7    1         0.2918417806E+00      0.1134562008E+01
          0                 2           2             3    7     1      -0.7988198530E-03       4    5    1        -0.2498967812E-01      0.9604568229E-01
          0                 3           1             3    7     1       0.5467852964E-04       4    5    1         0.1753877884E-02      0.6527873319E-02

    ------------------------------------------------
       NWT REQUIRED            3 OUTER ITERATIONS 
       AND A TOTAL OF          5 INNER ITERATIONS.
    ------------------------------------------------

 NO OUTPUT CONTROL FOR STRESS PERIOD   39   TIME STEP   20
 
 SOLVING FOR HEAD 
                                                   Max.-Head-Change                         Max.-Flux-Residual
  Residual-Control   Outer-Iter.   Inner-Iter.     Column Row Layer    Maximum-Head-Change  Column Row Layer    Maximum-Flux-Residual          L2-NORM 
          0                 1           2             3    7     1       0.8229919796E-02       4    7    1         0.2912685889E+00      0.1129741636E+01
          0                 2           2             3    7     1      -0.7932057071E-03       4    5    1        -0.2482939345E-01      0.9560833907E-01
          0                 3           1             3    7     1       0.5429559146E-04       4    5    1         0.1742644514E-02      0.6497780529E-02

    ------------------------------------------------
       NWT REQUIRED            3 OUTER ITERATIONS 
       AND A TOTAL OF          5 INNER ITERATIONS.
    ------------------------------------------------

 NO OUTPUT CONTROL FOR STRESS PERIOD   39   TIME STEP   21
 
 SOLVING FOR HEAD 
                                                   Max.-Head-Change                         Max.-Flux-Residual
  Residual-Control   Outer-Iter.   Inner-Iter.     Column Row Layer    Maximum-Head-Change  Column Row Layer    Maximum-Flux-Residual          L2-NORM 
          0                 1           2             3    7     1       0.8173112439E-02       4    7    1         0.2906714679E+00      0.1124963534E+01
          0                 2           2             3    7     1      -0.7876958792E-03       4    5    1        -0.2467314673E-01      0.9517651368E-01
          0                 3           1             3    7     1       0.5391973596E-04       4    5    1         0.1731693347E-02      0.6468099677E-02

    ------------------------------------------------
       NWT REQUIRED            3 OUTER ITERATIONS 
       AND A TOTAL OF          5 INNER ITERATIONS.
    ------------------------------------------------

 NO OUTPUT CONTROL FOR STRESS PERIOD   39   TIME STEP   22
 
 SOLVING FOR HEAD 
                                                   Max.-Head-Change                         Max.-Flux-Residual
  Residual-Control   Outer-Iter.   Inner-Iter.     Column Row Layer    Maximum-Head-Change  Column Row Layer    Maximum-Flux-Residual          L2-NORM 
          0                 1           2             3    7     1       0.8117099766E-02       4    7    1         0.2900440566E+00      0.1120238332E+01
          0                 2           2             3    7     1      -0.7822640692E-03       4    5    1        -0.2451997864E-01      0.9475158169E-01
          0                 3           1             3    7     1       0.5354916869E-04       4    5    1         0.1720957475E-02      0.6438924138E-02

    ------------------------------------------------
       NWT REQUIRED            3 OUTER ITERATIONS 
       AND A TOTAL OF          5 INNER ITERATIONS.
    ------------------------------------------------

 NO OUTPUT CONTROL FOR STRESS PERIOD   39   TIME STEP   23
 
 SOLVING FOR HEAD 
                                                   Max.-Head-Change                         Max.-Flux-Residual
  Residual-Control   Outer-Iter.   Inner-Iter.     Column Row Layer    Maximum-Head-Change  Column Row Layer    Maximum-Flux-Residual          L2-NORM 
          0                 1           2             3    7     1       0.8061859051E-02       4    7    1         0.2893949430E+00      0.1115556006E+01
          0                 2           2             3    7     1      -0.7769078688E-03       4    5    1        -0.2437048231E-01      0.9433238994E-01
          0                 3           1             3    7     1       0.5318373049E-04       4    5    1         0.1710478224E-02      0.6410165152E-02

    ------------------------------------------------
       NWT REQUIRED            3 OUTER ITERATIONS 
       AND A TOTAL OF          5 INNER ITERATIONS.
    ------------------------------------------------

 NO OUTPUT CONTROL FOR STRESS PERIOD   39   TIME STEP   24
 
 SOLVING FOR HEAD 
                                                   Max.-Head-Change                         Max.-Flux-Residual
  Residual-Control   Outer-Iter.   Inner-Iter.     Column Row Layer    Maximum-Head-Change  Column Row Layer    Maximum-Flux-Residual          L2-NORM 
          0                 1           2             3    7     1       0.8007368470E-02       4    7    1         0.2887249388E+00      0.1110927633E+01
          0                 2           2             3    7     1      -0.7716251315E-03       4    5    1        -0.2422445954E-01      0.9391960085E-01
          0                 3           1             3    7     1       0.5282327780E-04       4    5    1         0.1700241757E-02      0.6381866852E-02

    ------------------------------------------------
       NWT REQUIRED            3 OUTER ITERATIONS 
       AND A TOTAL OF          5 INNER ITERATIONS.
    ------------------------------------------------

 NO OUTPUT CONTROL FOR STRESS PERIOD   39   TIME STEP   25
 
 SOLVING FOR HEAD 
                                                   Max.-Head-Change                         Max.-Flux-Residual
  Residual-Control   Outer-Iter.   Inner-Iter.     Column Row Layer    Maximum-Head-Change  Column Row Layer    Maximum-Flux-Residual          L2-NORM 
          0                 1           2             3    7     1       0.7953605215E-02       4    7    1         0.2880349575E+00      0.1106336110E+01
          0                 2           2             3    7     1      -0.7664136163E-03       4    5    1        -0.2408100423E-01      0.9351170226E-01
          0                 3           1             3    7     1       0.5246765799E-04       4    5    1         0.1690184915E-02      0.6353918142E-02

    ------------------------------------------------
       NWT REQUIRED            3 OUTER ITERATIONS 
       AND A TOTAL OF          5 INNER ITERATIONS.
    ------------------------------------------------

 NO OUTPUT CONTROL FOR STRESS PERIOD   39   TIME STEP   26
 
 SOLVING FOR HEAD 
                                                   Max.-Head-Change                         Max.-Flux-Residual
  Residual-Control   Outer-Iter.   Inner-Iter.     Column Row Layer    Maximum-Head-Change  Column Row Layer    Maximum-Flux-Residual          L2-NORM 
          0                 1           2             3    7     1       0.7900791940E-02       4    7    1         0.2873185283E+00      0.1101797141E+01
          0                 2           2             3    7     1      -0.7612951219E-03       4    5    1        -0.2394072780E-01      0.9311025631E-01
          0                 3           1             3    7     1       0.5211835191E-04       4    5    1         0.1680350270E-02      0.6326441418E-02

    ------------------------------------------------
       NWT REQUIRED            3 OUTER ITERATIONS 
       AND A TOTAL OF          5 INNER ITERATIONS.
    ------------------------------------------------

 NO OUTPUT CONTROL FOR STRESS PERIOD   39   TIME STEP   27
 
 SOLVING FOR HEAD 
                                                   Max.-Head-Change                         Max.-Flux-Residual
  Residual-Control   Outer-Iter.   Inner-Iter.     Column Row Layer    Maximum-Head-Change  Column Row Layer    Maximum-Flux-Residual          L2-NORM 
          0                 1           2             3    7     1       0.7848660643E-02       4    7    1         0.2865844072E+00      0.1097301040E+01
          0                 2           2             3    7     1      -0.7562433815E-03       4    5    1        -0.2380274448E-01      0.9271416740E-01
          0                 3           1             3    7     1       0.5177357611E-04       4    5    1         0.1670675976E-02      0.6299333493E-02

    ------------------------------------------------
       NWT REQUIRED            3 OUTER ITERATIONS 
       AND A TOTAL OF          5 INNER ITERATIONS.
    ------------------------------------------------

 NO OUTPUT CONTROL FOR STRESS PERIOD   39   TIME STEP   28
 
 SOLVING FOR HEAD 
                                                   Max.-Head-Change                         Max.-Flux-Residual
  Residual-Control   Outer-Iter.   Inner-Iter.     Column Row Layer    Maximum-Head-Change  Column Row Layer    Maximum-Flux-Residual          L2-NORM 
          0                 1           2             3    7     1       0.7797191798E-02       4    7    1         0.2858334220E+00      0.1092842936E+01
          0                 2           2             3    7     1      -0.7512564873E-03       4    5    1        -0.2366768887E-01      0.9232317100E-01
          0                 3           1             3    7     1       0.5143320196E-04       4    5    1         0.1661206360E-02      0.6272592804E-02

    ------------------------------------------------
       NWT REQUIRED            3 OUTER ITERATIONS 
       AND A TOTAL OF          5 INNER ITERATIONS.
    ------------------------------------------------

 NO OUTPUT CONTROL FOR STRESS PERIOD   39   TIME STEP   29
 
 SOLVING FOR HEAD 
                                                   Max.-Head-Change                         Max.-Flux-Residual
  Residual-Control   Outer-Iter.   Inner-Iter.     Column Row Layer    Maximum-Head-Change  Column Row Layer    Maximum-Flux-Residual          L2-NORM 
          0                 1           2             3    7     1       0.7746368114E-02       4    7    1         0.2850661435E+00      0.1143185586E+01
          0                 2           2             3    7     1      -0.7463324686E-03       6    7    1        -0.2564155025E-01      0.9809056532E-01
          0                 3           1             3    7     1       0.5109711573E-04       6    7    1         0.1799267281E-02      0.6661769720E-02

    ------------------------------------------------
       NWT REQUIRED            3 OUTER ITERATIONS 
       AND A TOTAL OF          5 INNER ITERATIONS.
    ------------------------------------------------

 NO OUTPUT CONTROL FOR STRESS PERIOD   39   TIME STEP   30



 STREAM LISTING     PERIOD     39   STEP       30

 LAYER ROW COL. STREAM  RCH.  FLOW INTO     FLOW TO   FLOW OUT OF   OVRLND.     DIRECT     STREAM       STREAM     STREAM     STREAM   STREAMBED  STREAMBED
                SEG.NO.  NO.  STRM. RCH.    AQUIFER    STRM. RCH.    RUNOFF     PRECIP       ET          HEAD       DEPTH      WIDTH   CONDCTNC.   GRADIENT

   1    1    1     1     1    1.6375E+01  1.9673E-01   1.6178E+01  0.000E+00  0.000E+00  0.000E+00  1.09408E+03  1.036E+00  1.083E+01  4.874E-02  1.345E+00
   1    2    2     1     2    1.6178E+01  3.0333E-01   1.5875E+01  0.000E+00  0.000E+00  0.000E+00  1.08909E+03  1.032E+00  1.075E+01  7.524E-02  1.344E+00
   1    3    3     1     3    1.5875E+01  2.5739E-01   1.5618E+01  0.000E+00  0.000E+00  0.000E+00  1.08345E+03  1.026E+00  1.065E+01  6.392E-02  1.342E+00
   1    3    4     1     4    1.5618E+01  2.3595E-01   1.5382E+01  0.000E+00  0.000E+00  0.000E+00  1.07843E+03  1.022E+00  1.057E+01  5.867E-02  1.341E+00
   1    4    5     2     1    1.3382E+01  2.9830E-01   1.3084E+01  0.000E+00  0.000E+00  0.000E+00  1.07276E+03  8.244E-01  1.200E+01  7.800E-02  1.275E+00
   1    5    6     2     2    1.3084E+01  2.2887E-01   1.2855E+01  0.000E+00  0.000E+00  0.000E+00  1.06732E+03  8.145E-01  1.200E+01  6.000E-02  1.271E+00
   1    6    6     2     3    1.2855E+01  2.2835E-01   1.2626E+01  0.000E+00  0.000E+00  0.000E+00  1.06260E+03  8.059E-01  1.200E+01  6.000E-02  1.269E+00
   1    7    6     2     4    1.2626E+01  2.2783E-01   1.2398E+01  0.000E+00  0.000E+00  0.000E+00  1.05787E+03  7.972E-01  1.200E+01  6.000E-02  1.266E+00
   1    8    6     2     5    1.2398E+01  2.2731E-01   1.2171E+01  0.000E+00  0.000E+00  0.000E+00  1.05315E+03  7.884E-01  1.200E+01  6.000E-02  1.263E+00
   1    3    5     3     1    2.0000E+00  2.8252E-01   1.7175E+00  0.000E+00  0.000E+00  0.000E+00  1.07555E+03  1.909E+00  9.636E+00  7.227E-02  1.955E+00
   1    3    6     3     2    1.7175E+00  2.4905E-01   1.4684E+00  0.000E+00  0.000E+00  0.000E+00  1.07264E+03  1.727E+00  8.909E+00  6.682E-02  1.864E+00
   1    3    7     3     3    1.4684E+00  1.9718E-01   1.2712E+00  0.000E+00  0.000E+00  0.000E+00  1.06987E+03  1.555E+00  8.218E+00  5.547E-02  1.777E+00
   1    4    8     3     4    1.2712E+00  2.2567E-01   1.0456E+00  0.000E+00  0.000E+00  0.000E+00  1.06682E+03  1.364E+00  7.455E+00  6.709E-02  1.682E+00
   1    5    8     3     5    1.0456E+00  1.5790E-01   8.8768E-01  0.000E+00  0.000E+00  0.000E+00  1.06362E+03  1.164E+00  6.655E+00  4.991E-02  1.582E+00
   1    6    8     3     6    8.8768E-01  5.5980E-02   8.3170E-01  0.000E+00  0.000E+00  0.000E+00  1.06158E+03  1.036E+00  6.145E+00  1.844E-02  1.518E+00
   1    5   10     4     1    1.0000E+01  9.0919E-02   9.9091E+00  0.000E+00  0.000E+00  0.000E+00  1.07836E+03  6.368E-01  1.000E+01  2.500E-02  1.212E+00
   1    5    9     4     2    9.9091E+00  1.8158E-01   9.7275E+00  0.000E+00  0.000E+00  0.000E+00  1.07154E+03  6.315E-01  1.000E+01  5.000E-02  1.211E+00
   1    6    8     4     3    9.7275E+00  1.2689E-01   9.6006E+00  0.000E+00  0.000E+00  0.000E+00  1.06381E+03  6.256E-01  1.000E+01  3.500E-02  1.209E+00
   1    6    8     5     1    1.0432E+01  2.2686E-01   1.0205E+01  0.000E+00  0.000E+00  0.000E+00  1.05868E+03  6.790E-01  1.542E+01  6.166E-02  1.226E+00
   1    7    7     5     2    1.0205E+01  2.7894E-01   9.9265E+00  0.000E+00  0.000E+00  0.000E+00  1.05417E+03  6.732E-01  1.519E+01  7.594E-02  1.224E+00
   1    8    7     5     3    9.9265E+00  1.9221E-01   9.7343E+00  0.000E+00  0.000E+00  0.000E+00  1.04992E+03  6.676E-01  1.497E+01  5.241E-02  1.223E+00
   1    8    6     5     4    9.7343E+00  1.3577E-01   9.5985E+00  0.000E+00  0.000E+00  0.000E+00  1.04691E+03  6.637E-01  1.482E+01  3.706E-02  1.221E+00
   1    9    6     6     1    2.1770E+01  2.4720E-01   2.1522E+01  0.000E+00  0.000E+00  0.000E+00  1.04385E+03  1.120E+00  1.200E+01  6.000E-02  1.373E+00
   1   10    7     6     2    2.1522E+01  2.4674E-01   2.1276E+01  0.000E+00  0.000E+00  0.000E+00  1.03929E+03  1.112E+00  1.200E+01  6.000E-02  1.371E+00
   1   11    7     6     3    2.1276E+01  2.4627E-01   2.1029E+01  0.000E+00  0.000E+00  0.000E+00  1.03474E+03  1.105E+00  1.200E+01  6.000E-02  1.368E+00
   1   12    7     6     4    2.1029E+01  2.4581E-01   2.0784E+01  0.000E+00  0.000E+00  0.000E+00  1.03019E+03  1.097E+00  1.200E+01  6.000E-02  1.366E+00
   1   13    7     6     5    2.0784E+01  1.2621E-02   2.0771E+01  0.000E+00  0.000E+00  0.000E+00  1.02700E+03  1.093E+00  1.200E+01  2.400E-02  1.753E-01
   1   14    9     7     1    1.5000E+02  1.3966E+00   1.4860E+02  0.000E+00  0.000E+00  0.000E+00  1.03987E+03  2.288E+00  5.529E+01  5.593E-01  8.324E-01
   1   13    8     7     2    1.4860E+02  2.0266E+00   1.4658E+02  0.000E+00  0.000E+00  0.000E+00  1.03478E+03  2.278E+00  5.525E+01  6.147E-01  1.099E+00
   1   13    7     7     3    1.4658E+02  1.7932E+00   1.4478E+02  0.000E+00  0.000E+00  0.000E+00  1.02969E+03  2.268E+00  5.521E+01  5.583E-01  1.071E+00
   1   13    6     8     1    1.6555E+02  1.2115E+00   1.6434E+02  0.000E+00  0.000E+00  0.000E+00  1.02479E+03  2.919E+00  4.233E+01  4.313E-01  9.363E-01
   1   13    5     8     2    1.6434E+02  4.4291E-01   1.6390E+02  0.000E+00  0.000E+00  0.000E+00  1.01854E+03  2.914E+00  4.225E+01  4.305E-01  3.429E-01
   1   13    4     8     3    1.6390E+02 -1.4317E+00   1.6533E+02  0.000E+00  0.000E+00  0.000E+00  1.01229E+03  2.917E+00  4.229E+01  4.310E+00 -1.107E-01
   1   13    3     8     4    1.6533E+02 -3.0857E+00   1.6842E+02  0.000E+00  0.000E+00  0.000E+00  1.00606E+03  2.932E+00  4.251E+01  4.332E+00 -2.374E-01
   1   13    2     8     5    1.6842E+02 -2.3148E+00   1.7073E+02  0.000E+00  0.000E+00  0.000E+00  9.99824E+02  2.949E+00  4.277E+01  4.358E+00 -1.770E-01
   1   13    1     8     6    1.7073E+02 -1.8636E+00   1.7260E+02  0.000E+00  0.000E+00  0.000E+00  9.94838E+02  2.963E+00  4.296E+01  2.627E+00 -2.365E-01
   1    8    6     9     1    0.0000E+00  0.0000E+00   0.0000E+00  0.000E+00  0.000E+00  0.000E+00  1.07875E+03  0.000E+00  4.000E+00  0.000E+00  1.000E+00
   1    8    5     9     2    0.0000E+00  0.0000E+00   0.0000E+00  0.000E+00  0.000E+00  0.000E+00  1.07825E+03  0.000E+00  4.000E+00  0.000E+00  1.000E+00





UNSATURATED ZONE PACKAGE VOLUMETRIC BUDGET FOR  TIME STEP    30 STRESS PERIOD   39
  ------------------------------------------------------------------------------



     CUMULATIVE VOLUMES      L**3       RATES FOR THIS TIME STEP      L**3/T
     ------------------                 ------------------------

           IN:                                      IN:
           ---                                      ---
        INFILTRATION =  1551131211.2884          INFILTRATION =           0.8475

          OUT:                                     OUT:
          ----                                     ----
              UZF ET =  1288068623.2342                UZF ET =           0.7500
        UZF RECHARGE =    64347192.4615          UZF RECHARGE =           0.2306

            IN - OUT =   198715395.5927              IN - OUT =          -0.1331

          STORAGE:                                 STORAGE:
          --------                                 --------
      STORAGE CHANGE =   198716568.9242        STORAGE CHANGE =          -0.1331

 PERCENT DISCREPANCY IS DIFFERENCE BETWEEN IN-OUT MINUS CHANGE IN STORAGE
 DIVIDED BY THE AVERAGE OF IN AND OUT TIMES 100

 PERCENT DISCREPANCY =          -0.00     PERCENT DISCREPANCY =           0.00






1
  VOLUMETRIC BUDGET FOR AGRICULTURAL FIELDS AT  END OF TIME STEP   30, STRESS PERIOD  39
  ------------------------------------------------------------------------------

     CUMULATIVE VOLUMES      L**3       RATES FOR THIS TIME STEP      L**3/T
     ------------------                 ------------------------

           IN:                                      IN:
           ---                                      ---
               AG WELLS  =   964111616.0000                 AG WELLS  =           0.0000
      DIVERSION SEGMENTS =   502246304.0000        DIVERSION SEGMENTS =           0.0000
           GW IRRIGATION =           0.0000             GW IRRIGATION =           0.0000
           SW IRRIGATION =           0.0000             SW IRRIGATION =           0.0000
        SYSTEM LOSSES GW =           0.0000          SYSTEM LOSSES GW =           0.0000
        SYSTEM LOSSES SW =           0.0000          SYSTEM LOSSES SW =           0.0000

                TOTAL IN =  1466357888.0000                  TOTAL IN =           0.0000

          OUT:                                     OUT:
          ----                                     ----
               AG WELLS  =           0.0000                 AG WELLS  =           0.0000
      DIVERSION SEGMENTS =           0.0000        DIVERSION SEGMENTS =           0.0000
           GW IRRIGATION =   964111616.0000             GW IRRIGATION =           0.0000
           SW IRRIGATION =   502255776.0000             SW IRRIGATION =           0.0000
        SYSTEM LOSSES GW =           0.0000          SYSTEM LOSSES GW =           0.0000
        SYSTEM LOSSES SW =           0.0000          SYSTEM LOSSES SW =           0.0000

               TOTAL OUT =  1466367360.0000                 TOTAL OUT =           0.0000

                IN - OUT =       -9472.0000                  IN - OUT =           0.0000

     PERCENT DISCREPANCY =          -0.00         PERCENT DISCREPANCY =           0.00



1
  VOLUMETRIC BUDGET FOR ENTIRE MODEL AT END OF TIME STEP   30, STRESS PERIOD  39
  ------------------------------------------------------------------------------

     CUMULATIVE VOLUMES      L**3       RATES FOR THIS TIME STEP      L**3/T
     ------------------                 ------------------------

           IN:                                      IN:
           ---                                      ---
             STORAGE     =  1447776896.0000               STORAGE     =           2.3445
       CONSTANT HEAD     =           0.0000         CONSTANT HEAD     =           0.0000
     HEAD DEP BOUNDS     =    28860168.0000       HEAD DEP BOUNDS     =           0.2899
      STREAM LEAKAGE     =  1191619328.0000        STREAM LEAKAGE     =          12.4750
        UZF RECHARGE     =    64347184.0000          UZF RECHARGE     =           0.2306
               GW ET     =           0.0000                 GW ET     =           0.0000
     SURFACE LEAKAGE     =           0.0000       SURFACE LEAKAGE     =           0.0000
           AG WELLS      =           0.0000             AG WELLS      =           0.0000

                TOTAL IN =  2732603392.0000                  TOTAL IN =          15.3400

          OUT:                                     OUT:
          ----                                     ----
             STORAGE     =   749169024.0000               STORAGE     =           6.3580
       CONSTANT HEAD     =           0.0000         CONSTANT HEAD     =           0.0000
     HEAD DEP BOUNDS     =    28795054.0000       HEAD DEP BOUNDS     =           0.2868
      STREAM LEAKAGE     =   990540352.0000        STREAM LEAKAGE     =           8.6957
        UZF RECHARGE     =           0.0000          UZF RECHARGE     =           0.0000
               GW ET     =           0.0000                 GW ET     =           0.0000
     SURFACE LEAKAGE     =           0.0000       SURFACE LEAKAGE     =           0.0000
           AG WELLS      =   964111616.0000             AG WELLS      =           0.0000

               TOTAL OUT =  2732616192.0000                 TOTAL OUT =          15.3405

                IN - OUT =      -12800.0000                  IN - OUT =      -5.3501E-04

     PERCENT DISCREPANCY =          -0.00         PERCENT DISCREPANCY =          -0.00






         TIME SUMMARY AT END OF TIME STEP   30 IN STRESS PERIOD   39
                    SECONDS     MINUTES      HOURS       DAYS        YEARS
                    -----------------------------------------------------------
   TIME STEP LENGTH  87667.      1461.1      24.352      1.0147     2.77799E-03
 STRESS PERIOD TIME 2.63000E+06  43833.      730.56      30.440     8.33397E-02
         TOTAL TIME 1.00026E+08 1.66710E+06  27785.      1157.7      3.1696    
1
1
                            STRESS PERIOD NO.   40, LENGTH =   2630000.    
                            -----------------------------------------------

                              NUMBER OF TIME STEPS =    30

                               MULTIPLIER FOR DELT =     1.000

                            INITIAL TIME STEP SIZE =   87666.66    

 REUSING NON-PARAMETER GHB CELLS FROM LAST STRESS PERIOD

      2 GHB CELLS

 REUSING STREAM SEGMENT DATA FROM LAST STRESS PERIOD



            AREAL INFILTRATION RATE
 READING ON UNIT   19 WITH FORMAT: (FREE)              

            1           2           3           4           5           6           7           8           9          10
 ........................................................................................................................
   1   1.0000E-10  2.0000E-10   0.000       0.000       0.000       0.000       0.000       0.000       0.000       0.000    
   2   2.0000E-10  1.0000E-10  2.0000E-10   0.000       0.000      8.0000E-10  8.0000E-10  5.0000E-10   0.000       0.000    
   3    0.000      5.0000E-10  1.0000E-10  1.0000E-10  8.0000E-10  8.0000E-10  5.0000E-10  5.0000E-10   0.000       0.000    
   4   8.0000E-10  5.0000E-10  1.0000E-10  1.0000E-10  1.0000E-10  1.0000E-10  1.0000E-10  1.0000E-10  2.0000E-10   0.000    
   5   8.0000E-10  5.0000E-10  1.0000E-10  1.0000E-10  1.0000E-10  1.0000E-10  1.0000E-10  1.0000E-10  1.0000E-10  1.0000E-10
   6   8.0000E-10  5.0000E-10  5.0000E-10  2.0000E-10  2.0000E-10  1.0000E-10  1.0000E-10  1.0000E-10  1.0000E-10  5.0000E-10
   7   8.0000E-10  5.0000E-10  5.0000E-10  2.0000E-10  2.0000E-10  1.0000E-10  1.0000E-10  2.0000E-10  2.0000E-10   0.000    
   8    0.000      5.0000E-10  5.0000E-10  2.0000E-10  2.0000E-10  1.0000E-10  1.0000E-10  2.0000E-10  5.0000E-10   0.000    
   9    0.000      5.0000E-10  5.0000E-10  2.0000E-10  2.0000E-10  1.0000E-10  1.0000E-10  2.0000E-10  5.0000E-10   0.000    
  10    0.000      5.0000E-10  5.0000E-10  2.0000E-10  2.0000E-10  1.0000E-10  1.0000E-10  2.0000E-10  5.0000E-10  8.0000E-10
  11    0.000      1.0000E-10  1.0000E-10  1.0000E-10  1.0000E-10  1.0000E-10  1.0000E-10  2.0000E-10  5.0000E-10   0.000    
  12   1.0000E-10  1.0000E-10  1.0000E-10  1.0000E-10  1.0000E-10  1.0000E-10  1.0000E-10  1.0000E-10  2.0000E-10   0.000    
  13   1.0000E-10  1.0000E-10  2.0000E-10  2.0000E-10  2.0000E-10  2.0000E-10  2.0000E-10  1.0000E-10  1.0000E-10   0.000    
  14    0.000      2.0000E-10  5.0000E-10  5.0000E-10  5.0000E-10  5.0000E-10  5.0000E-10  2.0000E-10  1.0000E-10   0.000    
  15    0.000       0.000      8.0000E-10  8.0000E-10  8.0000E-10  8.0000E-10   0.000       0.000       0.000       0.000    

                  ET RATE =  5.000000E-10

 USING ET EXTINCTION DEPTH FROM PREVIOUS STRESS PERIOD. CURRENT PERIOD IS:      40

 USING EXTINCTION WATER CONTENT FROM PREVIOUS STRESS PERIOD. CURRENT PERIOD IS:      40

 USING AIR ENTRY PRESSURE FROM PREVIOUS STRESS PERIOD. CURRENT PERIOD IS:      40

 USING ROOT PRESSURE HEAD FROM PREVIOUS STRESS PERIOD. CURRENT PERIOD IS:      40

 USING ROOT ACTIVITY FROM PREVIOUS STRESS PERIOD. CURRENT PERIOD IS:      40

 PROCESSING AG STRESS PERIOD DATA

 READING AG STRESS PERIOD DATA

 READING IRRIGATION SEGMENT

 READING IRRIGATION WELL

 READING SUPPLEMENTAL WELL

 END PROCESSING AG STRESS PERIOD DATA OPTIONS
 
 SOLVING FOR HEAD 
                                                   Max.-Head-Change                         Max.-Flux-Residual
  Residual-Control   Outer-Iter.   Inner-Iter.     Column Row Layer    Maximum-Head-Change  Column Row Layer    Maximum-Flux-Residual          L2-NORM 
          0                 1           2             4   13     1       0.1157896865E-01       4   13    1         0.6652592369E+00      0.1611540096E+01
          0                 2           2             4   13     1      -0.1114267978E-02       4   13    1        -0.6582409340E-01      0.1479184699E+00
          0                 3           1             4   13     1       0.7476146153E-04       4   13    1         0.4540840110E-02      0.1001081719E-01

    ------------------------------------------------
       NWT REQUIRED            3 OUTER ITERATIONS 
       AND A TOTAL OF          5 INNER ITERATIONS.
    ------------------------------------------------

 NO OUTPUT CONTROL FOR STRESS PERIOD   40   TIME STEP    1
 
 SOLVING FOR HEAD 
                                                   Max.-Head-Change                         Max.-Flux-Residual
  Residual-Control   Outer-Iter.   Inner-Iter.     Column Row Layer    Maximum-Head-Change  Column Row Layer    Maximum-Flux-Residual          L2-NORM 
          0                 1           2             4   13     1       0.1048149540E-01       4   13    1         0.6018698003E+00      0.1548375203E+01
          0                 2           2             4   13     1      -0.1008619645E-02       4   13    1        -0.5954956110E-01      0.1414548758E+00
          0                 3           1             4   13     1       0.6765913853E-04       4   13    1         0.4107120826E-02      0.9578606399E-02

    ------------------------------------------------
       NWT REQUIRED            3 OUTER ITERATIONS 
       AND A TOTAL OF          5 INNER ITERATIONS.
    ------------------------------------------------

 NO OUTPUT CONTROL FOR STRESS PERIOD   40   TIME STEP    2
 
 SOLVING FOR HEAD 
                                                   Max.-Head-Change                         Max.-Flux-Residual
  Residual-Control   Outer-Iter.   Inner-Iter.     Column Row Layer    Maximum-Head-Change  Column Row Layer    Maximum-Flux-Residual          L2-NORM 
          0                 1           2             4   13     1       0.9493491414E-02       4   13    1         0.5448211837E+00      0.1492741615E+01
          0                 2           2             4   13     1      -0.9134904758E-03       4   13    1        -0.5390154797E-01      0.1357420605E+00
          0                 3           1             4   13     1       0.6126749057E-04       4   13    1         0.3716919797E-02      0.9197279772E-02

    ------------------------------------------------
       NWT REQUIRED            3 OUTER ITERATIONS 
       AND A TOTAL OF          5 INNER ITERATIONS.
    ------------------------------------------------

 NO OUTPUT CONTROL FOR STRESS PERIOD   40   TIME STEP    3
 
 SOLVING FOR HEAD 
                                                   Max.-Head-Change                         Max.-Flux-Residual
  Residual-Control   Outer-Iter.   Inner-Iter.     Column Row Layer    Maximum-Head-Change  Column Row Layer    Maximum-Flux-Residual          L2-NORM 
          0                 1           2             4   13     1       0.8603925350E-02       4   13    1         0.4934728297E+00      0.1443776610E+01
          0                 2           2             4   13     1      -0.8278754161E-03       4   13    1        -0.4882005959E-01      0.1306990279E+00
          0                 3           1             4   13     1       0.5552617780E-04       4   13    1         0.3366551126E-02      0.8860397561E-02

    ------------------------------------------------
       NWT REQUIRED            3 OUTER ITERATIONS 
       AND A TOTAL OF          5 INNER ITERATIONS.
    ------------------------------------------------

 NO OUTPUT CONTROL FOR STRESS PERIOD   40   TIME STEP    4
 
 SOLVING FOR HEAD 
                                                   Max.-Head-Change                         Max.-Flux-Residual
  Residual-Control   Outer-Iter.   Inner-Iter.     Column Row Layer    Maximum-Head-Change  Column Row Layer    Maximum-Flux-Residual          L2-NORM 
          0                 1           2             4   13     1       0.7802546796E-02       4   13    1         0.4472300730E+00      0.1400677180E+01
          0                 2           2             4   13     1      -0.7507267710E-03       4   13    1        -0.4424257830E-01      0.1262478156E+00
          0                 3           1             4   13     1       0.5035196757E-04       4   13    1         0.3050876931E-02      0.8564150682E-02

    ------------------------------------------------
       NWT REQUIRED            3 OUTER ITERATIONS 
       AND A TOTAL OF          5 INNER ITERATIONS.
    ------------------------------------------------

 NO OUTPUT CONTROL FOR STRESS PERIOD   40   TIME STEP    5
 
 SOLVING FOR HEAD 
                                                   Max.-Head-Change                         Max.-Flux-Residual
  Residual-Control   Outer-Iter.   Inner-Iter.     Column Row Layer    Maximum-Head-Change  Column Row Layer    Maximum-Flux-Residual          L2-NORM 
          0                 1           2             3    7     1       0.7455763873E-02       4   13    1         0.4055821487E+00      0.1362733053E+01
          0                 2           2             3    7     1      -0.7181835107E-03       4   13    1        -0.4011897681E-01      0.1223378429E+00
          0                 3           1             3    7     1       0.4917574046E-04       4   13    1         0.2765337681E-02      0.8302934772E-02

    ------------------------------------------------
       NWT REQUIRED            3 OUTER ITERATIONS 
       AND A TOTAL OF          5 INNER ITERATIONS.
    ------------------------------------------------

 NO OUTPUT CONTROL FOR STRESS PERIOD   40   TIME STEP    6
 
 SOLVING FOR HEAD 
                                                   Max.-Head-Change                         Max.-Flux-Residual
  Residual-Control   Outer-Iter.   Inner-Iter.     Column Row Layer    Maximum-Head-Change  Column Row Layer    Maximum-Flux-Residual          L2-NORM 
          0                 1           2             3    7     1       0.7409743197E-02       2   13    1         0.3709369197E+00      0.1329287998E+01
          0                 2           2             3    7     1      -0.7137270219E-03       4   13    1        -0.3640465431E-01      0.1188516745E+00
          0                 3           1             3    7     1       0.4887150738E-04       4   13    1         0.2510156584E-02      0.8071350630E-02

    ------------------------------------------------
       NWT REQUIRED            3 OUTER ITERATIONS 
       AND A TOTAL OF          5 INNER ITERATIONS.
    ------------------------------------------------

 NO OUTPUT CONTROL FOR STRESS PERIOD   40   TIME STEP    7
 
 SOLVING FOR HEAD 
                                                   Max.-Head-Change                         Max.-Flux-Residual
  Residual-Control   Outer-Iter.   Inner-Iter.     Column Row Layer    Maximum-Head-Change  Column Row Layer    Maximum-Flux-Residual          L2-NORM 
          0                 1           2             3    7     1       0.7363997445E-02       2   13    1         0.3432931734E+00      0.1299791318E+01
          0                 2           2             3    7     1      -0.7092974718E-03       4   13    1        -0.3305595185E-01      0.1157890660E+00
          0                 3           1             3    7     1       0.4856910142E-04       4   13    1         0.2279219645E-02      0.7867512367E-02

    ------------------------------------------------
       NWT REQUIRED            3 OUTER ITERATIONS 
       AND A TOTAL OF          5 INNER ITERATIONS.
    ------------------------------------------------

 NO OUTPUT CONTROL FOR STRESS PERIOD   40   TIME STEP    8
 
 SOLVING FOR HEAD 
                                                   Max.-Head-Change                         Max.-Flux-Residual
  Residual-Control   Outer-Iter.   Inner-Iter.     Column Row Layer    Maximum-Head-Change  Column Row Layer    Maximum-Flux-Residual          L2-NORM 
          0                 1           2             3    7     1       0.7319006582E-02       2   13    1         0.3177290828E+00      0.1273726673E+01
          0                 2           2             3    7     1      -0.7049412242E-03       2   13    1        -0.3038738718E-01      0.1130807778E+00
          0                 3           1             3    7     1       0.4827168986E-04       4   13    1         0.2071300732E-02      0.7687229942E-02

    ------------------------------------------------
       NWT REQUIRED            3 OUTER ITERATIONS 
       AND A TOTAL OF          5 INNER ITERATIONS.
    ------------------------------------------------

 NO OUTPUT CONTROL FOR STRESS PERIOD   40   TIME STEP    9
 
 SOLVING FOR HEAD 
                                                   Max.-Head-Change                         Max.-Flux-Residual
  Residual-Control   Outer-Iter.   Inner-Iter.     Column Row Layer    Maximum-Head-Change  Column Row Layer    Maximum-Flux-Residual          L2-NORM 
          0                 1           2             3    7     1       0.7274510813E-02       2   13    1         0.2940894242E+00      0.1250659865E+01
          0                 2           2             3    7     1      -0.7006333337E-03       2   13    1        -0.2813706164E-01      0.1106831819E+00
          0                 3           1             3    7     1       0.4797756392E-04       6    7    1         0.1892336440E-02      0.7526217257E-02

    ------------------------------------------------
       NWT REQUIRED            3 OUTER ITERATIONS 
       AND A TOTAL OF          5 INNER ITERATIONS.
    ------------------------------------------------

 NO OUTPUT CONTROL FOR STRESS PERIOD   40   TIME STEP   10
 
 SOLVING FOR HEAD 
                                                   Max.-Head-Change                         Max.-Flux-Residual
  Residual-Control   Outer-Iter.   Inner-Iter.     Column Row Layer    Maximum-Head-Change  Column Row Layer    Maximum-Flux-Residual          L2-NORM 
          0                 1           2             3    7     1       0.7230738588E-02       4    7    1         0.2763408769E+00      0.1230185754E+01
          0                 2           2             3    7     1      -0.6963960343E-03       6    7    1        -0.2676392284E-01      0.1085575775E+00
          0                 3           1             3    7     1       0.4768823676E-04       6    7    1         0.1877766564E-02      0.7384606153E-02

    ------------------------------------------------
       NWT REQUIRED            3 OUTER ITERATIONS 
       AND A TOTAL OF          5 INNER ITERATIONS.
    ------------------------------------------------

 NO OUTPUT CONTROL FOR STRESS PERIOD   40   TIME STEP   11
 
 SOLVING FOR HEAD 
                                                   Max.-Head-Change                         Max.-Flux-Residual
  Residual-Control   Outer-Iter.   Inner-Iter.     Column Row Layer    Maximum-Head-Change  Column Row Layer    Maximum-Flux-Residual          L2-NORM 
          0                 1           2             3    7     1       0.7187189296E-02       4    7    1         0.2755341246E+00      0.1211968388E+01
          0                 2           2             3    7     1      -0.6921802716E-03       6    7    1        -0.2656088916E-01      0.1066687558E+00
          0                 3           1             3    7     1       0.4740038005E-04       6    7    1         0.1863544879E-02      0.7258387259E-02

    ------------------------------------------------
       NWT REQUIRED            3 OUTER ITERATIONS 
       AND A TOTAL OF          5 INNER ITERATIONS.
    ------------------------------------------------

 NO OUTPUT CONTROL FOR STRESS PERIOD   40   TIME STEP   12
 
 SOLVING FOR HEAD 
                                                   Max.-Head-Change                         Max.-Flux-Residual
  Residual-Control   Outer-Iter.   Inner-Iter.     Column Row Layer    Maximum-Head-Change  Column Row Layer    Maximum-Flux-Residual          L2-NORM 
          0                 1           2             3    7     1       0.7144586311E-02       4    7    1         0.2747187970E+00      0.1195706263E+01
          0                 2           2             3    7     1      -0.6880567725E-03       6    7    1        -0.2636338898E-01      0.1049866506E+00
          0                 3           1             3    7     1       0.4711879732E-04       6    7    1         0.1849710029E-02      0.7146439028E-02

    ------------------------------------------------
       NWT REQUIRED            3 OUTER ITERATIONS 
       AND A TOTAL OF          5 INNER ITERATIONS.
    ------------------------------------------------

 NO OUTPUT CONTROL FOR STRESS PERIOD   40   TIME STEP   13
 
 SOLVING FOR HEAD 
                                                   Max.-Head-Change                         Max.-Flux-Residual
  Residual-Control   Outer-Iter.   Inner-Iter.     Column Row Layer    Maximum-Head-Change  Column Row Layer    Maximum-Flux-Residual          L2-NORM 
          0                 1           2             3    7     1       0.7102180497E-02       4    7    1         0.2739024096E+00      0.1181131783E+01
          0                 2           2             3    7     1      -0.6839524750E-03       6    7    1        -0.2617045542E-01      0.1034830652E+00
          0                 3           1             3    7     1       0.4683852208E-04       6    7    1         0.1836194618E-02      0.7045559642E-02

    ------------------------------------------------
       NWT REQUIRED            3 OUTER ITERATIONS 
       AND A TOTAL OF          5 INNER ITERATIONS.
    ------------------------------------------------

 NO OUTPUT CONTROL FOR STRESS PERIOD   40   TIME STEP   14
 
 SOLVING FOR HEAD 
                                                   Max.-Head-Change                         Max.-Flux-Residual
  Residual-Control   Outer-Iter.   Inner-Iter.     Column Row Layer    Maximum-Head-Change  Column Row Layer    Maximum-Flux-Residual          L2-NORM 
          0                 1           2             3    7     1       0.7060451602E-02       4    7    1         0.2730850658E+00      0.1168019839E+01
          0                 2           2             3    7     1      -0.6799140525E-03       6    7    1        -0.2598191349E-01      0.1021351456E+00
          0                 3           1             3    7     1       0.4656273015E-04       6    7    1         0.1822986161E-02      0.6955601323E-02

    ------------------------------------------------
       NWT REQUIRED            3 OUTER ITERATIONS 
       AND A TOTAL OF          5 INNER ITERATIONS.
    ------------------------------------------------

 NO OUTPUT CONTROL FOR STRESS PERIOD   40   TIME STEP   15
 
 SOLVING FOR HEAD 
                                                   Max.-Head-Change                         Max.-Flux-Residual
  Residual-Control   Outer-Iter.   Inner-Iter.     Column Row Layer    Maximum-Head-Change  Column Row Layer    Maximum-Flux-Residual          L2-NORM 
          0                 1           2             3    7     1       0.7019142094E-02       4    7    1         0.2722667089E+00      0.1156176888E+01
          0                 2           2             3    7     1      -0.6759164538E-03       6    7    1        -0.2579830560E-01      0.1009234498E+00
          0                 3           1             3    7     1       0.4628971700E-04       6    7    1         0.1810122802E-02      0.6874615637E-02

    ------------------------------------------------
       NWT REQUIRED            3 OUTER ITERATIONS 
       AND A TOTAL OF          5 INNER ITERATIONS.
    ------------------------------------------------

 NO OUTPUT CONTROL FOR STRESS PERIOD   40   TIME STEP   16
 
 SOLVING FOR HEAD 
                                                   Max.-Head-Change                         Max.-Flux-Residual
  Residual-Control   Outer-Iter.   Inner-Iter.     Column Row Layer    Maximum-Head-Change  Column Row Layer    Maximum-Flux-Residual          L2-NORM 
          0                 1           2             3    7     1       0.6978484356E-02       4    7    1         0.2714399724E+00      0.1145433481E+01
          0                 2           2             3    7     1      -0.6719824501E-03       6    7    1        -0.2561944254E-01      0.9982976665E-01
          0                 3           1             3    7     1       0.4602102633E-04       6    7    1         0.1797591304E-02      0.6801123592E-02

    ------------------------------------------------
       NWT REQUIRED            3 OUTER ITERATIONS 
       AND A TOTAL OF          5 INNER ITERATIONS.
    ------------------------------------------------

 NO OUTPUT CONTROL FOR STRESS PERIOD   40   TIME STEP   17
 
 SOLVING FOR HEAD 
                                                   Max.-Head-Change                         Max.-Flux-Residual
  Residual-Control   Outer-Iter.   Inner-Iter.     Column Row Layer    Maximum-Head-Change  Column Row Layer    Maximum-Flux-Residual          L2-NORM 
          0                 1           2             3    7     1       0.6938221494E-02       4    7    1         0.2706126066E+00      0.1135641299E+01
          0                 2           2             3    7     1      -0.6680868780E-03       6    7    1        -0.2544439974E-01      0.9883841144E-01
          0                 3           1             3    7     1       0.4575495173E-04       6    7    1         0.1785326857E-02      0.6734649860E-02

    ------------------------------------------------
       NWT REQUIRED            3 OUTER ITERATIONS 
       AND A TOTAL OF          5 INNER ITERATIONS.
    ------------------------------------------------

 NO OUTPUT CONTROL FOR STRESS PERIOD   40   TIME STEP   18
 
 SOLVING FOR HEAD 
                                                   Max.-Head-Change                         Max.-Flux-Residual
  Residual-Control   Outer-Iter.   Inner-Iter.     Column Row Layer    Maximum-Head-Change  Column Row Layer    Maximum-Flux-Residual          L2-NORM 
          0                 1           2             3    7     1       0.6898585795E-02       4    7    1         0.2697772107E+00      0.1126675316E+01
          0                 2           2             3    7     1      -0.6642524877E-03       6    7    1        -0.2527302506E-01      0.9793597302E-01
          0                 3           1             3    7     1       0.4549303808E-04       6    7    1         0.1773319061E-02      0.6673776709E-02

    ------------------------------------------------
       NWT REQUIRED            3 OUTER ITERATIONS 
       AND A TOTAL OF          5 INNER ITERATIONS.
    ------------------------------------------------

 NO OUTPUT CONTROL FOR STRESS PERIOD   40   TIME STEP   19
 
 SOLVING FOR HEAD 
                                                   Max.-Head-Change                         Max.-Flux-Residual
  Residual-Control   Outer-Iter.   Inner-Iter.     Column Row Layer    Maximum-Head-Change  Column Row Layer    Maximum-Flux-Residual          L2-NORM 
          0                 1           2             3    7     1       0.6859081317E-02       4    7    1         0.2689491142E+00      0.1118429898E+01
          0                 2           2             3    7     1      -0.6604307065E-03       6    7    1        -0.2510593171E-01      0.9711221891E-01
          0                 3           1             3    7     1       0.4523198711E-04       6    7    1         0.1761610633E-02      0.6618363958E-02

    ------------------------------------------------
       NWT REQUIRED            3 OUTER ITERATIONS 
       AND A TOTAL OF          5 INNER ITERATIONS.
    ------------------------------------------------

 NO OUTPUT CONTROL FOR STRESS PERIOD   40   TIME STEP   20
 
 SOLVING FOR HEAD 
                                                   Max.-Head-Change                         Max.-Flux-Residual
  Residual-Control   Outer-Iter.   Inner-Iter.     Column Row Layer    Maximum-Head-Change  Column Row Layer    Maximum-Flux-Residual          L2-NORM 
          0                 1           2             3    7     1       0.6820430009E-02       4    7    1         0.2681130028E+00      0.1110804925E+01
          0                 2           2             3    7     1      -0.6566921002E-03       6    7    1        -0.2494293871E-01      0.9635683700E-01
          0                 3           1             3    7     1       0.4497659286E-04       6    7    1         0.1750189021E-02      0.6568081605E-02

    ------------------------------------------------
       NWT REQUIRED            3 OUTER ITERATIONS 
       AND A TOTAL OF          5 INNER ITERATIONS.
    ------------------------------------------------

 NO OUTPUT CONTROL FOR STRESS PERIOD   40   TIME STEP   21
 
 SOLVING FOR HEAD 
                                                   Max.-Head-Change                         Max.-Flux-Residual
  Residual-Control   Outer-Iter.   Inner-Iter.     Column Row Layer    Maximum-Head-Change  Column Row Layer    Maximum-Flux-Residual          L2-NORM 
          0                 1           2             3    7     1       0.6782126324E-02       4    7    1         0.2672767150E+00      0.1103727647E+01
          0                 2           2             3    7     1      -0.6529873199E-03       6    7    1        -0.2478315268E-01      0.9566036368E-01
          0                 3           1             3    7     1       0.4472350133E-04       6    7    1         0.1738991628E-02      0.6520992407E-02

    ------------------------------------------------
       NWT REQUIRED            3 OUTER ITERATIONS 
       AND A TOTAL OF          5 INNER ITERATIONS.
    ------------------------------------------------

 NO OUTPUT CONTROL FOR STRESS PERIOD   40   TIME STEP   22
 
 SOLVING FOR HEAD 
                                                   Max.-Head-Change                         Max.-Flux-Residual
  Residual-Control   Outer-Iter.   Inner-Iter.     Column Row Layer    Maximum-Head-Change  Column Row Layer    Maximum-Flux-Residual          L2-NORM 
          0                 1           2             3    7     1       0.6744165248E-02       4    7    1         0.2664327747E+00      0.1097125124E+01
          0                 2           2             3    7     1      -0.6493160290E-03       6    7    1        -0.2462646043E-01      0.9501608156E-01
          0                 3           1             3    7     1       0.4447268577E-04       6    7    1         0.1728010747E-02      0.6478198463E-02

    ------------------------------------------------
       NWT REQUIRED            3 OUTER ITERATIONS 
       AND A TOTAL OF          5 INNER ITERATIONS.
    ------------------------------------------------

 NO OUTPUT CONTROL FOR STRESS PERIOD   40   TIME STEP   23
 
 SOLVING FOR HEAD 
                                                   Max.-Head-Change                         Max.-Flux-Residual
  Residual-Control   Outer-Iter.   Inner-Iter.     Column Row Layer    Maximum-Head-Change  Column Row Layer    Maximum-Flux-Residual          L2-NORM 
          0                 1           2             3    7     1       0.6706538413E-02       4    7    1         0.2655965793E+00      0.1090936454E+01
          0                 2           2             3    7     1      -0.6456770863E-03       6    7    1        -0.2447422575E-01      0.9441718778E-01
          0                 3           1             3    7     1       0.4422407706E-04       6    7    1         0.1717341657E-02      0.6437047076E-02

    ------------------------------------------------
       NWT REQUIRED            3 OUTER ITERATIONS 
       AND A TOTAL OF          5 INNER ITERATIONS.
    ------------------------------------------------

 NO OUTPUT CONTROL FOR STRESS PERIOD   40   TIME STEP   24
 
 SOLVING FOR HEAD 
                                                   Max.-Head-Change                         Max.-Flux-Residual
  Residual-Control   Outer-Iter.   Inner-Iter.     Column Row Layer    Maximum-Head-Change  Column Row Layer    Maximum-Flux-Residual          L2-NORM 
          0                 1           2             3    7     1       0.6669481218E-02       4    7    1         0.2647527813E+00      0.1085117941E+01
          0                 2           2             3    7     1      -0.6420937237E-03       6    7    1        -0.2432405163E-01      0.9385937717E-01
          0                 3           1             3    7     1       0.4397924720E-04       6    7    1         0.1706816647E-02      0.6399482316E-02

    ------------------------------------------------
       NWT REQUIRED            3 OUTER ITERATIONS 
       AND A TOTAL OF          5 INNER ITERATIONS.
    ------------------------------------------------

 NO OUTPUT CONTROL FOR STRESS PERIOD   40   TIME STEP   25
 
 SOLVING FOR HEAD 
                                                   Max.-Head-Change                         Max.-Flux-Residual
  Residual-Control   Outer-Iter.   Inner-Iter.     Column Row Layer    Maximum-Head-Change  Column Row Layer    Maximum-Flux-Residual          L2-NORM 
          0                 1           2             3    7     1       0.6632979062E-02       4    7    1         0.2639019711E+00      0.1079617172E+01
          0                 2           2             3    7     1      -0.6385645103E-03       6    7    1        -0.2417810576E-01      0.9333626909E-01
          0                 3           1             3    7     1       0.4373809974E-04       6    7    1         0.1696587521E-02      0.6364171795E-02

    ------------------------------------------------
       NWT REQUIRED            3 OUTER ITERATIONS 
       AND A TOTAL OF          5 INNER ITERATIONS.
    ------------------------------------------------

 NO OUTPUT CONTROL FOR STRESS PERIOD   40   TIME STEP   26
 
 SOLVING FOR HEAD 
                                                   Max.-Head-Change                         Max.-Flux-Residual
  Residual-Control   Outer-Iter.   Inner-Iter.     Column Row Layer    Maximum-Head-Change  Column Row Layer    Maximum-Flux-Residual          L2-NORM 
          0                 1           2             3    7     1       0.6596778719E-02       4    7    1         0.2630592642E+00      0.1074407506E+01
          0                 2           2             3    7     1      -0.6350644678E-03       6    7    1        -0.2403473944E-01      0.9284558512E-01
          0                 3           1             3    7     1       0.4349894459E-04       6    7    1         0.1686538765E-02      0.6330874607E-02

    ------------------------------------------------
       NWT REQUIRED            3 OUTER ITERATIONS 
       AND A TOTAL OF          5 INNER ITERATIONS.
    ------------------------------------------------

 NO OUTPUT CONTROL FOR STRESS PERIOD   40   TIME STEP   27
 
 SOLVING FOR HEAD 
                                                   Max.-Head-Change                         Max.-Flux-Residual
  Residual-Control   Outer-Iter.   Inner-Iter.     Column Row Layer    Maximum-Head-Change  Column Row Layer    Maximum-Flux-Residual          L2-NORM 
          0                 1           2             3    7     1       0.6560873116E-02       4    7    1         0.2622096281E+00      0.1069444061E+01
          0                 2           2             3    7     1      -0.6315932544E-03       6    7    1        -0.2389386736E-01      0.9238268412E-01
          0                 3           1             3    7     1       0.4326174685E-04       6    7    1         0.1676664485E-02      0.6300193978E-02

    ------------------------------------------------
       NWT REQUIRED            3 OUTER ITERATIONS 
       AND A TOTAL OF          5 INNER ITERATIONS.
    ------------------------------------------------

 NO OUTPUT CONTROL FOR STRESS PERIOD   40   TIME STEP   28
 
 SOLVING FOR HEAD 
                                                   Max.-Head-Change                         Max.-Flux-Residual
  Residual-Control   Outer-Iter.   Inner-Iter.     Column Row Layer    Maximum-Head-Change  Column Row Layer    Maximum-Flux-Residual          L2-NORM 
          0                 1           2             3    7     1       0.6525499084E-02       4    7    1         0.2613608007E+00      0.1064704057E+01
          0                 2           2             3    7     1      -0.6281738819E-03       6    7    1        -0.2375615163E-01      0.9197385230E-01
          0                 3           1             3    7     1       0.4302808016E-04       6    7    1         0.1667011112E-02      0.6272366322E-02

    ------------------------------------------------
       NWT REQUIRED            3 OUTER ITERATIONS 
       AND A TOTAL OF          5 INNER ITERATIONS.
    ------------------------------------------------

 NO OUTPUT CONTROL FOR STRESS PERIOD   40   TIME STEP   29
 
 SOLVING FOR HEAD 
                                                   Max.-Head-Change                         Max.-Flux-Residual
  Residual-Control   Outer-Iter.   Inner-Iter.     Column Row Layer    Maximum-Head-Change  Column Row Layer    Maximum-Flux-Residual          L2-NORM 
          0                 1           2             3    7     1       0.6490401267E-02       4    7    1         0.2605054955E+00      0.1060136414E+01
          0                 2           2             3    7     1      -0.6247812198E-03       6    7    1        -0.2362145728E-01      0.9152448319E-01
          0                 3           1             3    7     1       0.4279622745E-04       6    7    1         0.1657569164E-02      0.6241835988E-02

    ------------------------------------------------
       NWT REQUIRED            3 OUTER ITERATIONS 
       AND A TOTAL OF          5 INNER ITERATIONS.
    ------------------------------------------------

 NO OUTPUT CONTROL FOR STRESS PERIOD   40   TIME STEP   30



 STREAM LISTING     PERIOD     40   STEP       30

 LAYER ROW COL. STREAM  RCH.  FLOW INTO     FLOW TO   FLOW OUT OF   OVRLND.     DIRECT     STREAM       STREAM     STREAM     STREAM   STREAMBED  STREAMBED
                SEG.NO.  NO.  STRM. RCH.    AQUIFER    STRM. RCH.    RUNOFF     PRECIP       ET          HEAD       DEPTH      WIDTH   CONDCTNC.   GRADIENT

   1    1    1     1     1    3.6749E+01  2.9261E-01   3.6456E+01  0.000E+00  0.000E+00  0.000E+00  1.09435E+03  1.306E+00  1.510E+01  6.795E-02  1.435E+00
   1    2    2     1     2    3.6456E+01  4.5309E-01   3.6003E+01  0.000E+00  0.000E+00  0.000E+00  1.08936E+03  1.303E+00  1.504E+01  1.053E-01  1.434E+00
   1    3    3     1     3    3.6003E+01  3.8635E-01   3.5617E+01  0.000E+00  0.000E+00  0.000E+00  1.08372E+03  1.300E+00  1.497E+01  8.985E-02  1.433E+00
   1    3    4     1     4    3.5617E+01  3.5571E-01   3.5261E+01  0.000E+00  0.000E+00  0.000E+00  1.07870E+03  1.297E+00  1.492E+01  8.278E-02  1.432E+00
   1    4    5     2     1    3.3261E+01  3.4544E-01   3.2916E+01  0.000E+00  0.000E+00  0.000E+00  1.07336E+03  1.429E+00  1.200E+01  7.800E-02  1.476E+00
   1    5    6     2     2    3.2916E+01  2.6525E-01   3.2650E+01  0.000E+00  0.000E+00  0.000E+00  1.06793E+03  1.421E+00  1.200E+01  6.000E-02  1.474E+00
   1    6    6     2     3    3.2650E+01  2.6483E-01   3.2386E+01  0.000E+00  0.000E+00  0.000E+00  1.06321E+03  1.414E+00  1.200E+01  6.000E-02  1.471E+00
   1    7    6     2     4    3.2386E+01  2.6442E-01   3.2121E+01  0.000E+00  0.000E+00  0.000E+00  1.05848E+03  1.407E+00  1.200E+01  6.000E-02  1.469E+00
   1    8    6     2     5    3.2121E+01  2.6400E-01   3.1857E+01  0.000E+00  0.000E+00  0.000E+00  1.05376E+03  1.400E+00  1.200E+01  6.000E-02  1.467E+00
   1    3    5     3     1    2.0000E+00  2.8252E-01   1.7175E+00  0.000E+00  0.000E+00  0.000E+00  1.07555E+03  1.909E+00  9.636E+00  7.227E-02  1.955E+00
   1    3    6     3     2    1.7175E+00  2.4905E-01   1.4684E+00  0.000E+00  0.000E+00  0.000E+00  1.07264E+03  1.727E+00  8.909E+00  6.682E-02  1.864E+00
   1    3    7     3     3    1.4684E+00  1.9718E-01   1.2712E+00  0.000E+00  0.000E+00  0.000E+00  1.06987E+03  1.555E+00  8.218E+00  5.547E-02  1.777E+00
   1    4    8     3     4    1.2712E+00  2.2567E-01   1.0456E+00  0.000E+00  0.000E+00  0.000E+00  1.06682E+03  1.364E+00  7.455E+00  6.709E-02  1.682E+00
   1    5    8     3     5    1.0456E+00  1.5790E-01   8.8768E-01  0.000E+00  0.000E+00  0.000E+00  1.06362E+03  1.164E+00  6.655E+00  4.991E-02  1.582E+00
   1    6    8     3     6    8.8768E-01  5.5980E-02   8.3170E-01  0.000E+00  0.000E+00  0.000E+00  1.06158E+03  1.036E+00  6.145E+00  1.844E-02  1.518E+00
   1    5   10     4     1    1.0000E+01  9.0919E-02   9.9091E+00  0.000E+00  0.000E+00  0.000E+00  1.07836E+03  6.368E-01  1.000E+01  2.500E-02  1.212E+00
   1    5    9     4     2    9.9091E+00  1.8158E-01   9.7275E+00  0.000E+00  0.000E+00  0.000E+00  1.07154E+03  6.315E-01  1.000E+01  5.000E-02  1.211E+00
   1    6    8     4     3    9.7275E+00  1.2689E-01   9.6006E+00  0.000E+00  0.000E+00  0.000E+00  1.06381E+03  6.256E-01  1.000E+01  3.500E-02  1.209E+00
   1    6    8     5     1    1.0432E+01  2.2686E-01   1.0205E+01  0.000E+00  0.000E+00  0.000E+00  1.05868E+03  6.790E-01  1.542E+01  6.166E-02  1.226E+00
   1    7    7     5     2    1.0205E+01  2.7894E-01   9.9265E+00  0.000E+00  0.000E+00  0.000E+00  1.05417E+03  6.732E-01  1.519E+01  7.594E-02  1.224E+00
   1    8    7     5     3    9.9265E+00  1.9221E-01   9.7343E+00  0.000E+00  0.000E+00  0.000E+00  1.04992E+03  6.676E-01  1.497E+01  5.241E-02  1.223E+00
   1    8    6     5     4    9.7343E+00  1.3577E-01   9.5985E+00  0.000E+00  0.000E+00  0.000E+00  1.04691E+03  6.637E-01  1.482E+01  3.706E-02  1.221E+00
   1    9    6     6     1    4.1456E+01  2.7904E-01   4.1177E+01  0.000E+00  0.000E+00  0.000E+00  1.04438E+03  1.651E+00  1.200E+01  6.000E-02  1.550E+00
   1   10    7     6     2    4.1177E+01  2.7863E-01   4.0898E+01  0.000E+00  0.000E+00  0.000E+00  1.03983E+03  1.644E+00  1.200E+01  6.000E-02  1.548E+00
   1   11    7     6     3    4.0898E+01  2.7823E-01   4.0620E+01  0.000E+00  0.000E+00  0.000E+00  1.03527E+03  1.637E+00  1.200E+01  6.000E-02  1.546E+00
   1   12    7     6     4    4.0620E+01  2.7783E-01   4.0342E+01  0.000E+00  0.000E+00  0.000E+00  1.03072E+03  1.630E+00  1.200E+01  6.000E-02  1.543E+00
   1   13    7     6     5    4.0342E+01  2.5399E-02   4.0317E+01  0.000E+00  0.000E+00  0.000E+00  1.02754E+03  1.627E+00  1.200E+01  2.400E-02  3.528E-01
   1   14    9     7     1    1.5000E+02  1.3981E+00   1.4860E+02  0.000E+00  0.000E+00  0.000E+00  1.03987E+03  2.288E+00  5.529E+01  5.593E-01  8.332E-01
   1   13    8     7     2    1.4860E+02  2.0304E+00   1.4657E+02  0.000E+00  0.000E+00  0.000E+00  1.03478E+03  2.278E+00  5.525E+01  6.147E-01  1.101E+00
   1   13    7     7     3    1.4657E+02  1.7922E+00   1.4478E+02  0.000E+00  0.000E+00  0.000E+00  1.02969E+03  2.268E+00  5.521E+01  5.583E-01  1.070E+00
   1   13    6     8     1    1.8510E+02  1.3012E+00   1.8379E+02  0.000E+00  0.000E+00  0.000E+00  1.02492E+03  3.044E+00  4.414E+01  4.498E-01  9.644E-01
   1   13    5     8     2    1.8379E+02  4.9665E-01   1.8330E+02  0.000E+00  0.000E+00  0.000E+00  1.01866E+03  3.038E+00  4.406E+01  4.489E-01  3.688E-01
   1   13    4     8     3    1.8330E+02 -1.4283E+00   1.8473E+02  0.000E+00  0.000E+00  0.000E+00  1.01242E+03  3.041E+00  4.410E+01  4.494E+00 -1.059E-01
   1   13    3     8     4    1.8473E+02 -3.1278E+00   1.8785E+02  0.000E+00  0.000E+00  0.000E+00  1.00618E+03  3.055E+00  4.430E+01  4.514E+00 -2.309E-01
   1   13    2     8     5    1.8785E+02 -2.3819E+00   1.9024E+02  0.000E+00  0.000E+00  0.000E+00  9.99947E+02  3.072E+00  4.455E+01  4.539E+00 -1.749E-01
   1   13    1     8     6    1.9024E+02 -1.8668E+00   1.9210E+02  0.000E+00  0.000E+00  0.000E+00  9.94960E+02  3.085E+00  4.473E+01  2.735E+00 -2.275E-01
   1    8    6     9     1    0.0000E+00  0.0000E+00   0.0000E+00  0.000E+00  0.000E+00  0.000E+00  1.07875E+03  0.000E+00  4.000E+00  0.000E+00  1.000E+00
   1    8    5     9     2    0.0000E+00  0.0000E+00   0.0000E+00  0.000E+00  0.000E+00  0.000E+00  1.07825E+03  0.000E+00  4.000E+00  0.000E+00  1.000E+00





UNSATURATED ZONE PACKAGE VOLUMETRIC BUDGET FOR  TIME STEP    30 STRESS PERIOD   40
  ------------------------------------------------------------------------------



     CUMULATIVE VOLUMES      L**3       RATES FOR THIS TIME STEP      L**3/T
     ------------------                 ------------------------

           IN:                                      IN:
           ---                                      ---
        INFILTRATION =  1553360136.1611          INFILTRATION =           0.8475

          OUT:                                     OUT:
          ----                                     ----
              UZF ET =  1290041123.1002                UZF ET =           0.7500
        UZF RECHARGE =    64929247.6459          UZF RECHARGE =           0.2117

            IN - OUT =   198389765.4151              IN - OUT =          -0.1142

          STORAGE:                                 STORAGE:
          --------                                 --------
      STORAGE CHANGE =   198390938.7664        STORAGE CHANGE =          -0.1142

 PERCENT DISCREPANCY IS DIFFERENCE BETWEEN IN-OUT MINUS CHANGE IN STORAGE
 DIVIDED BY THE AVERAGE OF IN AND OUT TIMES 100

 PERCENT DISCREPANCY =          -0.00     PERCENT DISCREPANCY =           0.00






1
  VOLUMETRIC BUDGET FOR AGRICULTURAL FIELDS AT  END OF TIME STEP   30, STRESS PERIOD  40
  ------------------------------------------------------------------------------

     CUMULATIVE VOLUMES      L**3       RATES FOR THIS TIME STEP      L**3/T
     ------------------                 ------------------------

           IN:                                      IN:
           ---                                      ---
               AG WELLS  =   964111616.0000                 AG WELLS  =           0.0000
      DIVERSION SEGMENTS =   502246304.0000        DIVERSION SEGMENTS =           0.0000
           GW IRRIGATION =           0.0000             GW IRRIGATION =           0.0000
           SW IRRIGATION =           0.0000             SW IRRIGATION =           0.0000
        SYSTEM LOSSES GW =           0.0000          SYSTEM LOSSES GW =           0.0000
        SYSTEM LOSSES SW =           0.0000          SYSTEM LOSSES SW =           0.0000

                TOTAL IN =  1466357888.0000                  TOTAL IN =           0.0000

          OUT:                                     OUT:
          ----                                     ----
               AG WELLS  =           0.0000                 AG WELLS  =           0.0000
      DIVERSION SEGMENTS =           0.0000        DIVERSION SEGMENTS =           0.0000
           GW IRRIGATION =   964111616.0000             GW IRRIGATION =           0.0000
           SW IRRIGATION =   502255776.0000             SW IRRIGATION =           0.0000
        SYSTEM LOSSES GW =           0.0000          SYSTEM LOSSES GW =           0.0000
        SYSTEM LOSSES SW =           0.0000          SYSTEM LOSSES SW =           0.0000

               TOTAL OUT =  1466367360.0000                 TOTAL OUT =           0.0000

                IN - OUT =       -9472.0000                  IN - OUT =           0.0000

     PERCENT DISCREPANCY =          -0.00         PERCENT DISCREPANCY =           0.00



1
  VOLUMETRIC BUDGET FOR ENTIRE MODEL AT END OF TIME STEP   30, STRESS PERIOD  40
  ------------------------------------------------------------------------------

     CUMULATIVE VOLUMES      L**3       RATES FOR THIS TIME STEP      L**3/T
     ------------------                 ------------------------

           IN:                                      IN:
           ---                                      ---
             STORAGE     =  1452785280.0000               STORAGE     =           1.7026
       CONSTANT HEAD     =           0.0000         CONSTANT HEAD     =           0.0000
     HEAD DEP BOUNDS     =    29622738.0000       HEAD DEP BOUNDS     =           0.2900
      STREAM LEAKAGE     =  1227035776.0000        STREAM LEAKAGE     =          13.4508
        UZF RECHARGE     =    64929236.0000          UZF RECHARGE     =           0.2117
               GW ET     =           0.0000                 GW ET     =           0.0000
     SURFACE LEAKAGE     =           0.0000       SURFACE LEAKAGE     =           0.0000
           AG WELLS      =           0.0000             AG WELLS      =           0.0000

                TOTAL IN =  2774373120.0000                  TOTAL IN =          15.6551

          OUT:                                     OUT:
          ----                                     ----
             STORAGE     =   768380800.0000               STORAGE     =           6.5607
       CONSTANT HEAD     =           0.0000         CONSTANT HEAD     =           0.0000
     HEAD DEP BOUNDS     =    29555280.0000       HEAD DEP BOUNDS     =           0.2904
      STREAM LEAKAGE     =  1012340096.0000        STREAM LEAKAGE     =           8.8048
        UZF RECHARGE     =           0.0000          UZF RECHARGE     =           0.0000
               GW ET     =           0.0000                 GW ET     =           0.0000
     SURFACE LEAKAGE     =           0.0000       SURFACE LEAKAGE     =           0.0000
           AG WELLS      =   964111616.0000             AG WELLS      =           0.0000

               TOTAL OUT =  2774387712.0000                 TOTAL OUT =          15.6560

                IN - OUT =      -14592.0000                  IN - OUT =      -8.2874E-04

     PERCENT DISCREPANCY =          -0.00         PERCENT DISCREPANCY =          -0.01






         TIME SUMMARY AT END OF TIME STEP   30 IN STRESS PERIOD   40
                    SECONDS     MINUTES      HOURS       DAYS        YEARS
                    -----------------------------------------------------------
   TIME STEP LENGTH  87667.      1461.1      24.352      1.0147     2.77799E-03
 STRESS PERIOD TIME 2.63000E+06  43833.      730.56      30.440     8.33397E-02
         TOTAL TIME 1.02656E+08 1.71093E+06  28515.      1188.1      3.2530    
1
1
                            STRESS PERIOD NO.   41, LENGTH =   2630000.    
                            -----------------------------------------------

                              NUMBER OF TIME STEPS =    30

                               MULTIPLIER FOR DELT =     1.000

                            INITIAL TIME STEP SIZE =   87666.66    

 REUSING NON-PARAMETER GHB CELLS FROM LAST STRESS PERIOD

      2 GHB CELLS

 REUSING STREAM SEGMENT DATA FROM LAST STRESS PERIOD



            AREAL INFILTRATION RATE
 READING ON UNIT   19 WITH FORMAT: (FREE)              

            1           2           3           4           5           6           7           8           9          10
 ........................................................................................................................
   1   1.0000E-10  2.0000E-10   0.000       0.000       0.000       0.000       0.000       0.000       0.000       0.000    
   2   2.0000E-10  1.0000E-10  2.0000E-10   0.000       0.000      8.0000E-10  8.0000E-10  5.0000E-10   0.000       0.000    
   3    0.000      5.0000E-10  1.0000E-10  1.0000E-10  8.0000E-10  8.0000E-10  5.0000E-10  5.0000E-10   0.000       0.000    
   4   8.0000E-10  5.0000E-10  1.0000E-10  1.0000E-10  1.0000E-10  1.0000E-10  1.0000E-10  1.0000E-10  2.0000E-10   0.000    
   5   8.0000E-10  5.0000E-10  1.0000E-10  1.0000E-10  1.0000E-10  1.0000E-10  1.0000E-10  1.0000E-10  1.0000E-10  1.0000E-10
   6   8.0000E-10  5.0000E-10  5.0000E-10  2.0000E-10  2.0000E-10  1.0000E-10  1.0000E-10  1.0000E-10  1.0000E-10  5.0000E-10
   7   8.0000E-10  5.0000E-10  5.0000E-10  2.0000E-10  2.0000E-10  1.0000E-10  1.0000E-10  2.0000E-10  2.0000E-10   0.000    
   8    0.000      5.0000E-10  5.0000E-10  2.0000E-10  2.0000E-10  1.0000E-10  1.0000E-10  2.0000E-10  5.0000E-10   0.000    
   9    0.000      5.0000E-10  5.0000E-10  2.0000E-10  2.0000E-10  1.0000E-10  1.0000E-10  2.0000E-10  5.0000E-10   0.000    
  10    0.000      5.0000E-10  5.0000E-10  2.0000E-10  2.0000E-10  1.0000E-10  1.0000E-10  2.0000E-10  5.0000E-10  8.0000E-10
  11    0.000      1.0000E-10  1.0000E-10  1.0000E-10  1.0000E-10  1.0000E-10  1.0000E-10  2.0000E-10  5.0000E-10   0.000    
  12   1.0000E-10  1.0000E-10  1.0000E-10  1.0000E-10  1.0000E-10  1.0000E-10  1.0000E-10  1.0000E-10  2.0000E-10   0.000    
  13   1.0000E-10  1.0000E-10  2.0000E-10  2.0000E-10  2.0000E-10  2.0000E-10  2.0000E-10  1.0000E-10  1.0000E-10   0.000    
  14    0.000      2.0000E-10  5.0000E-10  5.0000E-10  5.0000E-10  5.0000E-10  5.0000E-10  2.0000E-10  1.0000E-10   0.000    
  15    0.000       0.000      8.0000E-10  8.0000E-10  8.0000E-10  8.0000E-10   0.000       0.000       0.000       0.000    

                  ET RATE =  2.500000E-08

 USING ET EXTINCTION DEPTH FROM PREVIOUS STRESS PERIOD. CURRENT PERIOD IS:      41

 USING EXTINCTION WATER CONTENT FROM PREVIOUS STRESS PERIOD. CURRENT PERIOD IS:      41

 USING AIR ENTRY PRESSURE FROM PREVIOUS STRESS PERIOD. CURRENT PERIOD IS:      41

 USING ROOT PRESSURE HEAD FROM PREVIOUS STRESS PERIOD. CURRENT PERIOD IS:      41

 USING ROOT ACTIVITY FROM PREVIOUS STRESS PERIOD. CURRENT PERIOD IS:      41

 PROCESSING AG STRESS PERIOD DATA

 READING AG STRESS PERIOD DATA

 READING IRRIGATION SEGMENT

 READING IRRIGATION WELL

 READING SUPPLEMENTAL WELL

 END PROCESSING AG STRESS PERIOD DATA OPTIONS
 
 SOLVING FOR HEAD 
                                                   Max.-Head-Change                         Max.-Flux-Residual
  Residual-Control   Outer-Iter.   Inner-Iter.     Column Row Layer    Maximum-Head-Change  Column Row Layer    Maximum-Flux-Residual          L2-NORM 
          0                 1           2             3    7     1       0.6455817506E-02       4    7    1         0.2596587621E+00      0.1055744842E+01
          0                 2           2             3    7     1      -0.6214385116E-03       6    7    1        -0.2348894914E-01      0.9112456866E-01
          0                 3           1             3    7     1       0.4256778295E-04       6    7    1         0.1648280199E-02      0.6214590469E-02

    ------------------------------------------------
       NWT REQUIRED            3 OUTER ITERATIONS 
       AND A TOTAL OF          5 INNER ITERATIONS.
    ------------------------------------------------

 NO OUTPUT CONTROL FOR STRESS PERIOD   41   TIME STEP    1
 
 SOLVING FOR HEAD 
                                                   Max.-Head-Change                         Max.-Flux-Residual
  Residual-Control   Outer-Iter.   Inner-Iter.     Column Row Layer    Maximum-Head-Change  Column Row Layer    Maximum-Flux-Residual          L2-NORM 
          0                 1           2             3    7     1       0.6421492486E-02       4    7    1         0.2588056731E+00      0.1051511120E+01
          0                 2           2             3    7     1      -0.6181211231E-03       6    7    1        -0.2335929553E-01      0.9074265345E-01
          0                 3           1             3    7     1       0.4234105777E-04       6    7    1         0.1639190896E-02      0.6188915602E-02

    ------------------------------------------------
       NWT REQUIRED            3 OUTER ITERATIONS 
       AND A TOTAL OF          5 INNER ITERATIONS.
    ------------------------------------------------

 NO OUTPUT CONTROL FOR STRESS PERIOD   41   TIME STEP    2
 
 SOLVING FOR HEAD 
                                                   Max.-Head-Change                         Max.-Flux-Residual
  Residual-Control   Outer-Iter.   Inner-Iter.     Column Row Layer    Maximum-Head-Change  Column Row Layer    Maximum-Flux-Residual          L2-NORM 
          0                 1           2             3    7     1       0.6387664685E-02       4    7    1         0.2579538135E+00      0.1047416784E+01
          0                 2           2             3    7     1      -0.6148520650E-03       6    7    1        -0.2323239713E-01      0.9037636739E-01
          0                 3           1             3    7     1       0.4211762424E-04       6    7    1         0.1630294409E-02      0.6164120338E-02

    ------------------------------------------------
       NWT REQUIRED            3 OUTER ITERATIONS 
       AND A TOTAL OF          5 INNER ITERATIONS.
    ------------------------------------------------

 NO OUTPUT CONTROL FOR STRESS PERIOD   41   TIME STEP    3
 
 SOLVING FOR HEAD 
                                                   Max.-Head-Change                         Max.-Flux-Residual
  Residual-Control   Outer-Iter.   Inner-Iter.     Column Row Layer    Maximum-Head-Change  Column Row Layer    Maximum-Flux-Residual          L2-NORM 
          0                 1           2             3    7     1       0.6354078123E-02       4    7    1         0.2570960074E+00      0.1039073330E+01
          0                 2           2             3    7     1      -0.6116066237E-03       6    7    1        -0.2301079440E-01      0.8952939310E-01
          0                 3           1             3    7     1       0.4189579428E-04       6    7    1         0.1614768274E-02      0.6106098474E-02

    ------------------------------------------------
       NWT REQUIRED            3 OUTER ITERATIONS 
       AND A TOTAL OF          5 INNER ITERATIONS.
    ------------------------------------------------

 NO OUTPUT CONTROL FOR STRESS PERIOD   41   TIME STEP    4
 
 SOLVING FOR HEAD 
                                                   Max.-Head-Change                         Max.-Flux-Residual
  Residual-Control   Outer-Iter.   Inner-Iter.     Column Row Layer    Maximum-Head-Change  Column Row Layer    Maximum-Flux-Residual          L2-NORM 
          0                 1           2             3    7     1       0.6320970798E-02       4    7    1         0.2562396001E+00      0.1033883569E+01
          0                 2           2             3    7     1      -0.6084078942E-03       6    7    1        -0.2159005276E-01      0.8885917342E-01
          0                 3           1             3    7     1       0.4167713303E-04       6    7    1         0.1515299640E-02      0.6044022408E-02

    ------------------------------------------------
       NWT REQUIRED            3 OUTER ITERATIONS 
       AND A TOTAL OF          5 INNER ITERATIONS.
    ------------------------------------------------

 NO OUTPUT CONTROL FOR STRESS PERIOD   41   TIME STEP    5
 
 SOLVING FOR HEAD 
                                                   Max.-Head-Change                         Max.-Flux-Residual
  Residual-Control   Outer-Iter.   Inner-Iter.     Column Row Layer    Maximum-Head-Change  Column Row Layer    Maximum-Flux-Residual          L2-NORM 
          0                 1           2             3    7     1       0.6288089027E-02       4    7    1         0.2553816582E+00      0.1025666929E+01
          0                 2           2             3    7     1      -0.6052311504E-03       6    7    1        -0.2150725629E-01      0.8804994570E-01
          0                 3           1             3    7     1       0.4145996590E-04       6    7    1         0.1509487194E-02      0.5989883635E-02

    ------------------------------------------------
       NWT REQUIRED            3 OUTER ITERATIONS 
       AND A TOTAL OF          5 INNER ITERATIONS.
    ------------------------------------------------

 NO OUTPUT CONTROL FOR STRESS PERIOD   41   TIME STEP    6
 
 SOLVING FOR HEAD 
                                                   Max.-Head-Change                         Max.-Flux-Residual
  Residual-Control   Outer-Iter.   Inner-Iter.     Column Row Layer    Maximum-Head-Change  Column Row Layer    Maximum-Flux-Residual          L2-NORM 
          0                 1           2             3    7     1       0.6255670053E-02       4    7    1         0.2545220941E+00      0.1018337759E+01
          0                 2           2             3    7     1      -0.6020994381E-03       6    7    1        -0.2142455818E-01      0.8733752120E-01
          0                 3           1             3    7     1       0.4124586605E-04       6    7    1         0.1503681839E-02      0.5941702278E-02

    ------------------------------------------------
       NWT REQUIRED            3 OUTER ITERATIONS 
       AND A TOTAL OF          5 INNER ITERATIONS.
    ------------------------------------------------

 NO OUTPUT CONTROL FOR STRESS PERIOD   41   TIME STEP    7
 
 SOLVING FOR HEAD 
                                                   Max.-Head-Change                         Max.-Flux-Residual
  Residual-Control   Outer-Iter.   Inner-Iter.     Column Row Layer    Maximum-Head-Change  Column Row Layer    Maximum-Flux-Residual          L2-NORM 
          0                 1           2             3    7     1       0.6223703179E-02       4    7    1         0.2536542412E+00      0.1011737403E+01
          0                 2           2             3    7     1      -0.5990118968E-03       6    7    1        -0.2134274754E-01      0.8670706755E-01
          0                 3           1             3    7     1       0.4103476745E-04       6    7    1         0.1497938641E-02      0.5900113239E-02

    ------------------------------------------------
       NWT REQUIRED            3 OUTER ITERATIONS 
       AND A TOTAL OF          5 INNER ITERATIONS.
    ------------------------------------------------

 NO OUTPUT CONTROL FOR STRESS PERIOD   41   TIME STEP    8
 
 SOLVING FOR HEAD 
                                                   Max.-Head-Change                         Max.-Flux-Residual
  Residual-Control   Outer-Iter.   Inner-Iter.     Column Row Layer    Maximum-Head-Change  Column Row Layer    Maximum-Flux-Residual          L2-NORM 
          0                 1           2             3    7     1       0.6191693928E-02       4    7    1         0.2527858798E+00      0.1005754625E+01
          0                 2           2             3    7     1      -0.5959202408E-03       6    7    1        -0.2126179097E-01      0.8614411885E-01
          0                 3           1             3    7     1       0.4082338876E-04       6    7    1         0.1492255410E-02      0.5861289160E-02

    ------------------------------------------------
       NWT REQUIRED            3 OUTER ITERATIONS 
       AND A TOTAL OF          5 INNER ITERATIONS.
    ------------------------------------------------

 NO OUTPUT CONTROL FOR STRESS PERIOD   41   TIME STEP    9
 
 SOLVING FOR HEAD 
                                                   Max.-Head-Change                         Max.-Flux-Residual
  Residual-Control   Outer-Iter.   Inner-Iter.     Column Row Layer    Maximum-Head-Change  Column Row Layer    Maximum-Flux-Residual          L2-NORM 
          0                 1           2             3    7     1       0.6160370432E-02       4    7    1         0.2519171535E+00      0.1000303257E+01
          0                 2           2             3    7     1      -0.5928952786E-03       6    7    1        -0.2118168817E-01      0.8564422121E-01
          0                 3           1             3    7     1       0.4061655288E-04       6    7    1         0.1486632128E-02      0.5828836410E-02

    ------------------------------------------------
       NWT REQUIRED            3 OUTER ITERATIONS 
       AND A TOTAL OF          5 INNER ITERATIONS.
    ------------------------------------------------

 NO OUTPUT CONTROL FOR STRESS PERIOD   41   TIME STEP   10
 
 SOLVING FOR HEAD 
                                                   Max.-Head-Change                         Max.-Flux-Residual
  Residual-Control   Outer-Iter.   Inner-Iter.     Column Row Layer    Maximum-Head-Change  Column Row Layer    Maximum-Flux-Residual          L2-NORM 
          0                 1           2             3    7     1       0.6129231742E-02       4    7    1         0.2510486074E+00      0.9952796813E+00
          0                 2           2             3    7     1      -0.5898882904E-03       6    7    1        -0.2110169447E-01      0.8518154965E-01
          0                 3           1             3    7     1       0.4041094144E-04       6    7    1         0.1481016532E-02      0.5797990706E-02

    ------------------------------------------------
       NWT REQUIRED            3 OUTER ITERATIONS 
       AND A TOTAL OF          5 INNER ITERATIONS.
    ------------------------------------------------

 NO OUTPUT CONTROL FOR STRESS PERIOD   41   TIME STEP   11
 
 SOLVING FOR HEAD 
                                                   Max.-Head-Change                         Max.-Flux-Residual
  Residual-Control   Outer-Iter.   Inner-Iter.     Column Row Layer    Maximum-Head-Change  Column Row Layer    Maximum-Flux-Residual          L2-NORM 
          0                 1           2             3    7     1       0.6098273980E-02       4    7    1         0.2501729359E+00      0.9906305183E+00
          0                 2           2             3    7     1      -0.5868990564E-03       6    7    1        -0.2102331353E-01      0.8476571706E-01
          0                 3           1             3    7     1       0.4020653395E-04       6    7    1         0.1475514014E-02      0.5770204907E-02

    ------------------------------------------------
       NWT REQUIRED            3 OUTER ITERATIONS 
       AND A TOTAL OF          5 INNER ITERATIONS.
    ------------------------------------------------

 NO OUTPUT CONTROL FOR STRESS PERIOD   41   TIME STEP   12
 
 SOLVING FOR HEAD 
                                                   Max.-Head-Change                         Max.-Flux-Residual
  Residual-Control   Outer-Iter.   Inner-Iter.     Column Row Layer    Maximum-Head-Change  Column Row Layer    Maximum-Flux-Residual          L2-NORM 
          0                 1           2             3    7     1       0.6067735861E-02       4    7    1         0.2492980656E+00      0.9862999527E+00
          0                 2           2             3    7     1      -0.5839506117E-03       6    7    1        -0.2094501191E-01      0.8438403437E-01
          0                 3           1             3    7     1       0.4000490584E-04       6    7    1         0.1470017200E-02      0.5744806942E-02

    ------------------------------------------------
       NWT REQUIRED            3 OUTER ITERATIONS 
       AND A TOTAL OF          5 INNER ITERATIONS.
    ------------------------------------------------

 NO OUTPUT CONTROL FOR STRESS PERIOD   41   TIME STEP   13
 
 SOLVING FOR HEAD 
                                                   Max.-Head-Change                         Max.-Flux-Residual
  Residual-Control   Outer-Iter.   Inner-Iter.     Column Row Layer    Maximum-Head-Change  Column Row Layer    Maximum-Flux-Residual          L2-NORM 
          0                 1           2             3    7     1       0.6037365907E-02       4    7    1         0.2484169778E+00      0.9822283335E+00
          0                 2           2             3    7     1      -0.5810186615E-03       4    5    1        -0.2087169556E-01      0.8403145346E-01
          0                 3           1             3    7     1       0.3980439684E-04       4    5    1         0.1464873980E-02      0.5721280879E-02

    ------------------------------------------------
       NWT REQUIRED            3 OUTER ITERATIONS 
       AND A TOTAL OF          5 INNER ITERATIONS.
    ------------------------------------------------

 NO OUTPUT CONTROL FOR STRESS PERIOD   41   TIME STEP   14
 
 SOLVING FOR HEAD 
                                                   Max.-Head-Change                         Max.-Flux-Residual
  Residual-Control   Outer-Iter.   Inner-Iter.     Column Row Layer    Maximum-Head-Change  Column Row Layer    Maximum-Flux-Residual          L2-NORM 
          0                 1           2             3    7     1       0.6007645021E-02       4    7    1         0.2475448417E+00      0.9783873064E+00
          0                 2           2             3    7     1      -0.5781496390E-03       4    5    1        -0.2082111592E-01      0.8370343975E-01
          0                 3           1             3    7     1       0.3960817990E-04       4    5    1         0.1461320353E-02      0.5699247040E-02

    ------------------------------------------------
       NWT REQUIRED            3 OUTER ITERATIONS 
       AND A TOTAL OF          5 INNER ITERATIONS.
    ------------------------------------------------

 NO OUTPUT CONTROL FOR STRESS PERIOD   41   TIME STEP   15
 
 SOLVING FOR HEAD 
                                                   Max.-Head-Change                         Max.-Flux-Residual
  Residual-Control   Outer-Iter.   Inner-Iter.     Column Row Layer    Maximum-Head-Change  Column Row Layer    Maximum-Flux-Residual          L2-NORM 
          0                 1           2             3    7     1       0.5977831571E-02       4    7    1         0.2466666720E+00      0.9747397593E+00
          0                 2           2             3    7     1      -0.5752717350E-03       4    5    1        -0.2076948678E-01      0.8339719141E-01
          0                 3           1             3    7     1       0.3941135519E-04       4    5    1         0.1457693291E-02      0.5679009359E-02

    ------------------------------------------------
       NWT REQUIRED            3 OUTER ITERATIONS 
       AND A TOTAL OF          5 INNER ITERATIONS.
    ------------------------------------------------

 NO OUTPUT CONTROL FOR STRESS PERIOD   41   TIME STEP   16
 
 SOLVING FOR HEAD 
                                                   Max.-Head-Change                         Max.-Flux-Residual
  Residual-Control   Outer-Iter.   Inner-Iter.     Column Row Layer    Maximum-Head-Change  Column Row Layer    Maximum-Flux-Residual          L2-NORM 
          0                 1           2             3    7     1       0.5948413160E-02       4    7    1         0.2457904728E+00      0.9712504658E+00
          0                 2           2             3    7     1      -0.5724322049E-03       4    5    1        -0.2071836689E-01      0.8310768754E-01
          0                 3           1             3    7     1       0.3921714596E-04       4    5    1         0.1454101913E-02      0.5659953122E-02

    ------------------------------------------------
       NWT REQUIRED            3 OUTER ITERATIONS 
       AND A TOTAL OF          5 INNER ITERATIONS.
    ------------------------------------------------

 NO OUTPUT CONTROL FOR STRESS PERIOD   41   TIME STEP   17
 
 SOLVING FOR HEAD 
                                                   Max.-Head-Change                         Max.-Flux-Residual
  Residual-Control   Outer-Iter.   Inner-Iter.     Column Row Layer    Maximum-Head-Change  Column Row Layer    Maximum-Flux-Residual          L2-NORM 
          0                 1           2             3    7     1       0.5919381375E-02       4    7    1         0.2449090498E+00      0.9679067662E+00
          0                 2           2             3    7     1      -0.5696304048E-03       4    5    1        -0.2066629217E-01      0.8283423762E-01
          0                 3           1             3    7     1       0.3902550119E-04       4    5    1         0.1450443644E-02      0.5641882031E-02

    ------------------------------------------------
       NWT REQUIRED            3 OUTER ITERATIONS 
       AND A TOTAL OF          5 INNER ITERATIONS.
    ------------------------------------------------

 NO OUTPUT CONTROL FOR STRESS PERIOD   41   TIME STEP   18
 
 SOLVING FOR HEAD 
                                                   Max.-Head-Change                         Max.-Flux-Residual
  Residual-Control   Outer-Iter.   Inner-Iter.     Column Row Layer    Maximum-Head-Change  Column Row Layer    Maximum-Flux-Residual          L2-NORM 
          0                 1           2             3    7     1       0.5890483941E-02       4    7    1         0.2440300270E+00      0.9646783547E+00
          0                 2           2             3    7     1      -0.5668416018E-03       4    5    1        -0.2061407398E-01      0.8257272863E-01
          0                 3           1             3    7     1       0.3883474526E-04       4    5    1         0.1446775366E-02      0.5624323530E-02

    ------------------------------------------------
       NWT REQUIRED            3 OUTER ITERATIONS 
       AND A TOTAL OF          5 INNER ITERATIONS.
    ------------------------------------------------

 NO OUTPUT CONTROL FOR STRESS PERIOD   41   TIME STEP   19
 
 SOLVING FOR HEAD 
                                                   Max.-Head-Change                         Max.-Flux-Residual
  Residual-Control   Outer-Iter.   Inner-Iter.     Column Row Layer    Maximum-Head-Change  Column Row Layer    Maximum-Flux-Residual          L2-NORM 
          0                 1           2             3    7     1       0.5861963967E-02       4    7    1         0.2431536621E+00      0.9615687716E+00
          0                 2           2             3    7     1      -0.5640894459E-03       4    5    1        -0.2056174224E-01      0.8232395146E-01
          0                 3           1             3    7     1       0.3864648741E-04       4    5    1         0.1443099180E-02      0.5607818859E-02

    ------------------------------------------------
       NWT REQUIRED            3 OUTER ITERATIONS 
       AND A TOTAL OF          5 INNER ITERATIONS.
    ------------------------------------------------

 NO OUTPUT CONTROL FOR STRESS PERIOD   41   TIME STEP   20
 
 SOLVING FOR HEAD 
                                                   Max.-Head-Change                         Max.-Flux-Residual
  Residual-Control   Outer-Iter.   Inner-Iter.     Column Row Layer    Maximum-Head-Change  Column Row Layer    Maximum-Flux-Residual          L2-NORM 
          0                 1           2             3    7     1       0.5833811520E-02       4    7    1         0.2422800613E+00      0.9585432539E+00
          0                 2           2             3    7     1      -0.5613729696E-03       4    5    1        -0.2050934977E-01      0.8208394414E-01
          0                 3           1             3    7     1       0.3846066280E-04       4    5    1         0.1439418830E-02      0.5591972586E-02

    ------------------------------------------------
       NWT REQUIRED            3 OUTER ITERATIONS 
       AND A TOTAL OF          5 INNER ITERATIONS.
    ------------------------------------------------

 NO OUTPUT CONTROL FOR STRESS PERIOD   41   TIME STEP   21
 
 SOLVING FOR HEAD 
                                                   Max.-Head-Change                         Max.-Flux-Residual
  Residual-Control   Outer-Iter.   Inner-Iter.     Column Row Layer    Maximum-Head-Change  Column Row Layer    Maximum-Flux-Residual          L2-NORM 
          0                 1           2             3    7     1       0.5805776672E-02       4    7    1         0.2414019581E+00      0.9555999031E+00
          0                 2           2             3    7     1      -0.5586680223E-03       4    5    1        -0.2045691961E-01      0.8185289486E-01
          0                 3           1             3    7     1       0.3827562016E-04       4    5    1         0.1435735849E-02      0.5576719684E-02

    ------------------------------------------------
       NWT REQUIRED            3 OUTER ITERATIONS 
       AND A TOTAL OF          5 INNER ITERATIONS.
    ------------------------------------------------

 NO OUTPUT CONTROL FOR STRESS PERIOD   41   TIME STEP   22
 
 SOLVING FOR HEAD 
                                                   Max.-Head-Change                         Max.-Flux-Residual
  Residual-Control   Outer-Iter.   Inner-Iter.     Column Row Layer    Maximum-Head-Change  Column Row Layer    Maximum-Flux-Residual          L2-NORM 
          0                 1           2             3    7     1       0.5777858482E-02       4    7    1         0.2405272673E+00      0.9527210138E+00
          0                 2           2             3    7     1      -0.5559743446E-03       4    5    1        -0.2040375226E-01      0.8162840162E-01
          0                 3           1             3    7     1       0.3809134812E-04       4    5    1         0.1432001238E-02      0.5561812201E-02

    ------------------------------------------------
       NWT REQUIRED            3 OUTER ITERATIONS 
       AND A TOTAL OF          5 INNER ITERATIONS.
    ------------------------------------------------

 NO OUTPUT CONTROL FOR STRESS PERIOD   41   TIME STEP   23
 
 SOLVING FOR HEAD 
                                                   Max.-Head-Change                         Max.-Flux-Residual
  Residual-Control   Outer-Iter.   Inner-Iter.     Column Row Layer    Maximum-Head-Change  Column Row Layer    Maximum-Flux-Residual          L2-NORM 
          0                 1           2             3    7     1       0.5750297000E-02       4    7    1         0.2396557960E+00      0.9499128635E+00
          0                 2           2             3    7     1      -0.5533152757E-03       4    5    1        -0.2035061766E-01      0.8141104138E-01
          0                 3           1             3    7     1       0.3790943655E-04       4    5    1         0.1428268977E-02      0.5547530307E-02

    ------------------------------------------------
       NWT REQUIRED            3 OUTER ITERATIONS 
       AND A TOTAL OF          5 INNER ITERATIONS.
    ------------------------------------------------

 NO OUTPUT CONTROL FOR STRESS PERIOD   41   TIME STEP   24
 
 SOLVING FOR HEAD 
                                                   Max.-Head-Change                         Max.-Flux-Residual
  Residual-Control   Outer-Iter.   Inner-Iter.     Column Row Layer    Maximum-Head-Change  Column Row Layer    Maximum-Flux-Residual          L2-NORM 
          0                 1           2             3    7     1       0.5723084353E-02       4    7    1         0.2387804400E+00      0.9471549930E+00
          0                 2           2             3    7     1      -0.5506902261E-03       4    5    1        -0.2029829639E-01      0.8119918156E-01
          0                 3           1             3    7     1       0.3772983869E-04       4    5    1         0.1424593590E-02      0.5533438714E-02

    ------------------------------------------------
       NWT REQUIRED            3 OUTER ITERATIONS 
       AND A TOTAL OF          5 INNER ITERATIONS.
    ------------------------------------------------

 NO OUTPUT CONTROL FOR STRESS PERIOD   41   TIME STEP   25
 
 SOLVING FOR HEAD 
                                                   Max.-Head-Change                         Max.-Flux-Residual
  Residual-Control   Outer-Iter.   Inner-Iter.     Column Row Layer    Maximum-Head-Change  Column Row Layer    Maximum-Flux-Residual          L2-NORM 
          0                 1           2             3    7     1       0.5696214102E-02       4    7    1         0.2379161753E+00      0.9444477226E+00
          0                 2           2             3    7     1      -0.5480982134E-03       4    5    1        -0.2024527883E-01      0.8099211737E-01
          0                 3           1             3    7     1       0.3755250000E-04       4    5    1         0.1420869629E-02      0.5519798287E-02

    ------------------------------------------------
       NWT REQUIRED            3 OUTER ITERATIONS 
       AND A TOTAL OF          5 INNER ITERATIONS.
    ------------------------------------------------

 NO OUTPUT CONTROL FOR STRESS PERIOD   41   TIME STEP   26
 
 SOLVING FOR HEAD 
                                                   Max.-Head-Change                         Max.-Flux-Residual
  Residual-Control   Outer-Iter.   Inner-Iter.     Column Row Layer    Maximum-Head-Change  Column Row Layer    Maximum-Flux-Residual          L2-NORM 
          0                 1           2             3    7     1       0.5669193337E-02       4    7    1         0.2370480940E+00      0.9407888723E+00
          0                 2           2             3    7     1      -0.5454916631E-03       4    5    1        -0.2019237163E-01      0.8065379226E-01
          0                 3           1             3    7     1       0.3737416717E-04       4    5    1         0.1417153331E-02      0.5494934103E-02

    ------------------------------------------------
       NWT REQUIRED            3 OUTER ITERATIONS 
       AND A TOTAL OF          5 INNER ITERATIONS.
    ------------------------------------------------

 NO OUTPUT CONTROL FOR STRESS PERIOD   41   TIME STEP   27
 
 SOLVING FOR HEAD 
                                                   Max.-Head-Change                         Max.-Flux-Residual
  Residual-Control   Outer-Iter.   Inner-Iter.     Column Row Layer    Maximum-Head-Change  Column Row Layer    Maximum-Flux-Residual          L2-NORM 
          0                 1           2             3    7     1       0.5642753682E-02       4    7    1         0.2361760303E+00      0.9469013266E+00
          0                 2           2             3    7     1      -0.5429417821E-03       4    5    1        -0.2013863597E-01      0.8135142091E-01
          0                 3           1             3    7     1       0.3719968311E-04       4    5    1         0.1413378980E-02      0.5535370608E-02

    ------------------------------------------------
       NWT REQUIRED            3 OUTER ITERATIONS 
       AND A TOTAL OF          5 INNER ITERATIONS.
    ------------------------------------------------

 NO OUTPUT CONTROL FOR STRESS PERIOD   41   TIME STEP   28
 
 SOLVING FOR HEAD 
                                                   Max.-Head-Change                         Max.-Flux-Residual
  Residual-Control   Outer-Iter.   Inner-Iter.     Column Row Layer    Maximum-Head-Change  Column Row Layer    Maximum-Flux-Residual          L2-NORM 
          0                 1           2             3    7     1       0.5616398160E-02       4    7    1         0.2353064248E+00      0.9411281590E+00
          0                 2           2             3    7     1      -0.5404000196E-03       4    5    1        -0.2008498290E-01      0.8081294963E-01
          0                 3           1             3    7     1       0.3702575701E-04       4    5    1         0.1409610439E-02      0.5499975126E-02

    ------------------------------------------------
       NWT REQUIRED            3 OUTER ITERATIONS 
       AND A TOTAL OF          5 INNER ITERATIONS.
    ------------------------------------------------

 NO OUTPUT CONTROL FOR STRESS PERIOD   41   TIME STEP   29
 
 SOLVING FOR HEAD 
                                                   Max.-Head-Change                         Max.-Flux-Residual
  Residual-Control   Outer-Iter.   Inner-Iter.     Column Row Layer    Maximum-Head-Change  Column Row Layer    Maximum-Flux-Residual          L2-NORM 
          0                 1           2             3    7     1       0.5590368878E-02       4    7    1         0.2344466738E+00      0.9358803531E+00
          0                 2           2             3    7     1      -0.5378897557E-03       4    5    1        -0.2003001129E-01      0.8033090998E-01
          0                 3           1             3    7     1       0.3685398334E-04       4    5    1         0.1405749558E-02      0.5468030225E-02

    ------------------------------------------------
       NWT REQUIRED            3 OUTER ITERATIONS 
       AND A TOTAL OF          5 INNER ITERATIONS.
    ------------------------------------------------

 NO OUTPUT CONTROL FOR STRESS PERIOD   41   TIME STEP   30



 STREAM LISTING     PERIOD     41   STEP       30

 LAYER ROW COL. STREAM  RCH.  FLOW INTO     FLOW TO   FLOW OUT OF   OVRLND.     DIRECT     STREAM       STREAM     STREAM     STREAM   STREAMBED  STREAMBED
                SEG.NO.  NO.  STRM. RCH.    AQUIFER    STRM. RCH.    RUNOFF     PRECIP       ET          HEAD       DEPTH      WIDTH   CONDCTNC.   GRADIENT

   1    1    1     1     1    2.3624E+01  2.3872E-01   2.3386E+01  0.000E+00  0.000E+00  0.000E+00  1.09421E+03  1.157E+00  1.276E+01  5.742E-02  1.386E+00
   1    2    2     1     2    2.3386E+01  3.6908E-01   2.3016E+01  0.000E+00  0.000E+00  0.000E+00  1.08921E+03  1.153E+00  1.270E+01  8.888E-02  1.384E+00
   1    3    3     1     3    2.3016E+01  3.1417E-01   2.2702E+01  0.000E+00  0.000E+00  0.000E+00  1.08357E+03  1.147E+00  1.263E+01  7.575E-02  1.382E+00
   1    3    4     1     4    2.2702E+01  2.8881E-01   2.2414E+01  0.000E+00  0.000E+00  0.000E+00  1.07855E+03  1.143E+00  1.256E+01  6.972E-02  1.381E+00
   1    4    5     2     1    2.0414E+01  3.1702E-01   2.0096E+01  0.000E+00  0.000E+00  0.000E+00  1.07300E+03  1.064E+00  1.200E+01  7.800E-02  1.355E+00
   1    5    6     2     2    2.0096E+01  2.4333E-01   1.9853E+01  0.000E+00  0.000E+00  0.000E+00  1.06756E+03  1.055E+00  1.200E+01  6.000E-02  1.352E+00
   1    6    6     2     3    1.9853E+01  2.4286E-01   1.9610E+01  0.000E+00  0.000E+00  0.000E+00  1.06284E+03  1.048E+00  1.200E+01  6.000E-02  1.349E+00
   1    7    6     2     4    1.9610E+01  2.4240E-01   1.9368E+01  0.000E+00  0.000E+00  0.000E+00  1.05812E+03  1.040E+00  1.200E+01  6.000E-02  1.347E+00
   1    8    6     2     5    1.9368E+01  2.4193E-01   1.9126E+01  0.000E+00  0.000E+00  0.000E+00  1.05339E+03  1.032E+00  1.200E+01  6.000E-02  1.344E+00
   1    3    5     3     1    2.0000E+00  2.8252E-01   1.7175E+00  0.000E+00  0.000E+00  0.000E+00  1.07555E+03  1.909E+00  9.636E+00  7.227E-02  1.955E+00
   1    3    6     3     2    1.7175E+00  2.4905E-01   1.4684E+00  0.000E+00  0.000E+00  0.000E+00  1.07264E+03  1.727E+00  8.909E+00  6.682E-02  1.864E+00
   1    3    7     3     3    1.4684E+00  1.9718E-01   1.2712E+00  0.000E+00  0.000E+00  0.000E+00  1.06987E+03  1.555E+00  8.218E+00  5.547E-02  1.777E+00
   1    4    8     3     4    1.2712E+00  2.2567E-01   1.0456E+00  0.000E+00  0.000E+00  0.000E+00  1.06682E+03  1.364E+00  7.455E+00  6.709E-02  1.682E+00
   1    5    8     3     5    1.0456E+00  1.5790E-01   8.8768E-01  0.000E+00  0.000E+00  0.000E+00  1.06362E+03  1.164E+00  6.655E+00  4.991E-02  1.582E+00
   1    6    8     3     6    8.8768E-01  5.5980E-02   8.3170E-01  0.000E+00  0.000E+00  0.000E+00  1.06158E+03  1.036E+00  6.145E+00  1.844E-02  1.518E+00
   1    5   10     4     1    1.0000E+01  9.0919E-02   9.9091E+00  0.000E+00  0.000E+00  0.000E+00  1.07836E+03  6.368E-01  1.000E+01  2.500E-02  1.212E+00
   1    5    9     4     2    9.9091E+00  1.8158E-01   9.7275E+00  0.000E+00  0.000E+00  0.000E+00  1.07154E+03  6.315E-01  1.000E+01  5.000E-02  1.211E+00
   1    6    8     4     3    9.7275E+00  1.2689E-01   9.6006E+00  0.000E+00  0.000E+00  0.000E+00  1.06381E+03  6.256E-01  1.000E+01  3.500E-02  1.209E+00
   1    6    8     5     1    1.0432E+01  2.2686E-01   1.0205E+01  0.000E+00  0.000E+00  0.000E+00  1.05868E+03  6.790E-01  1.542E+01  6.166E-02  1.226E+00
   1    7    7     5     2    1.0205E+01  2.7894E-01   9.9265E+00  0.000E+00  0.000E+00  0.000E+00  1.05417E+03  6.732E-01  1.519E+01  7.594E-02  1.224E+00
   1    8    7     5     3    9.9265E+00  1.9221E-01   9.7343E+00  0.000E+00  0.000E+00  0.000E+00  1.04992E+03  6.676E-01  1.497E+01  5.241E-02  1.223E+00
   1    8    6     5     4    9.7343E+00  1.3577E-01   9.5985E+00  0.000E+00  0.000E+00  0.000E+00  1.04691E+03  6.637E-01  1.482E+01  3.706E-02  1.221E+00
   1    9    6     6     1    2.8725E+01  2.5941E-01   2.8465E+01  0.000E+00  0.000E+00  0.000E+00  1.04405E+03  1.324E+00  1.200E+01  6.000E-02  1.441E+00
   1   10    7     6     2    2.8465E+01  2.5898E-01   2.8206E+01  0.000E+00  0.000E+00  0.000E+00  1.03950E+03  1.316E+00  1.200E+01  6.000E-02  1.439E+00
   1   11    7     6     3    2.8206E+01  2.5855E-01   2.7948E+01  0.000E+00  0.000E+00  0.000E+00  1.03495E+03  1.309E+00  1.200E+01  6.000E-02  1.436E+00
   1   12    7     6     4    2.7948E+01  2.5811E-01   2.7689E+01  0.000E+00  0.000E+00  0.000E+00  1.03039E+03  1.302E+00  1.200E+01  6.000E-02  1.434E+00
   1   13    7     6     5    2.7689E+01  1.7497E-02   2.7672E+01  0.000E+00  0.000E+00  0.000E+00  1.02721E+03  1.298E+00  1.200E+01  2.400E-02  2.430E-01
   1   14    9     7     1    1.5000E+02  1.3995E+00   1.4860E+02  0.000E+00  0.000E+00  0.000E+00  1.03987E+03  2.288E+00  5.529E+01  5.593E-01  8.341E-01
   1   13    8     7     2    1.4860E+02  2.0329E+00   1.4657E+02  0.000E+00  0.000E+00  0.000E+00  1.03478E+03  2.278E+00  5.525E+01  6.147E-01  1.102E+00
   1   13    7     7     3    1.4657E+02  1.7920E+00   1.4478E+02  0.000E+00  0.000E+00  0.000E+00  1.02969E+03  2.268E+00  5.521E+01  5.583E-01  1.070E+00
   1   13    6     8     1    1.7245E+02  1.2307E+00   1.7122E+02  0.000E+00  0.000E+00  0.000E+00  1.02484E+03  2.964E+00  4.298E+01  4.380E-01  9.366E-01
   1   13    5     8     2    1.7122E+02  4.4460E-01   1.7077E+02  0.000E+00  0.000E+00  0.000E+00  1.01858E+03  2.959E+00  4.290E+01  4.372E-01  3.390E-01
   1   13    4     8     3    1.7077E+02 -1.6226E+00   1.7239E+02  0.000E+00  0.000E+00  0.000E+00  1.01234E+03  2.962E+00  4.296E+01  4.377E+00 -1.236E-01
   1   13    3     8     4    1.7239E+02 -3.2801E+00   1.7568E+02  0.000E+00  0.000E+00  0.000E+00  1.00610E+03  2.978E+00  4.319E+01  4.401E+00 -2.485E-01
   1   13    2     8     5    1.7568E+02 -2.5426E+00   1.7822E+02  0.000E+00  0.000E+00  0.000E+00  9.99872E+02  2.997E+00  4.345E+01  4.428E+00 -1.914E-01
   1   13    1     8     6    1.7822E+02 -2.0023E+00   1.8022E+02  0.000E+00  0.000E+00  0.000E+00  9.94886E+02  3.011E+00  4.366E+01  2.670E+00 -2.500E-01
   1    8    6     9     1    0.0000E+00  0.0000E+00   0.0000E+00  0.000E+00  0.000E+00  0.000E+00  1.07875E+03  0.000E+00  4.000E+00  0.000E+00  1.000E+00
   1    8    5     9     2    0.0000E+00  0.0000E+00   0.0000E+00  0.000E+00  0.000E+00  0.000E+00  1.07825E+03  0.000E+00  4.000E+00  0.000E+00  1.000E+00





UNSATURATED ZONE PACKAGE VOLUMETRIC BUDGET FOR  TIME STEP    30 STRESS PERIOD   41
  ------------------------------------------------------------------------------



     CUMULATIVE VOLUMES      L**3       RATES FOR THIS TIME STEP      L**3/T
     ------------------                 ------------------------

           IN:                                      IN:
           ---                                      ---
        INFILTRATION =  1555589061.0339          INFILTRATION =           0.8475

          OUT:                                     OUT:
          ----                                     ----
              UZF ET =  1293533527.0662                UZF ET =           0.8475
        UZF RECHARGE =    65456090.1874          UZF RECHARGE =           0.1898

            IN - OUT =   196599443.7803              IN - OUT =          -0.1898

          STORAGE:                                 STORAGE:
          --------                                 --------
      STORAGE CHANGE =   196600617.1303        STORAGE CHANGE =          -0.1898

 PERCENT DISCREPANCY IS DIFFERENCE BETWEEN IN-OUT MINUS CHANGE IN STORAGE
 DIVIDED BY THE AVERAGE OF IN AND OUT TIMES 100

 PERCENT DISCREPANCY =          -0.00     PERCENT DISCREPANCY =           0.00






1
  VOLUMETRIC BUDGET FOR AGRICULTURAL FIELDS AT  END OF TIME STEP   30, STRESS PERIOD  41
  ------------------------------------------------------------------------------

     CUMULATIVE VOLUMES      L**3       RATES FOR THIS TIME STEP      L**3/T
     ------------------                 ------------------------

           IN:                                      IN:
           ---                                      ---
               AG WELLS  =   964111616.0000                 AG WELLS  =           0.0000
      DIVERSION SEGMENTS =   502246304.0000        DIVERSION SEGMENTS =           0.0000
           GW IRRIGATION =           0.0000             GW IRRIGATION =           0.0000
           SW IRRIGATION =           0.0000             SW IRRIGATION =           0.0000
        SYSTEM LOSSES GW =           0.0000          SYSTEM LOSSES GW =           0.0000
        SYSTEM LOSSES SW =           0.0000          SYSTEM LOSSES SW =           0.0000

                TOTAL IN =  1466357888.0000                  TOTAL IN =           0.0000

          OUT:                                     OUT:
          ----                                     ----
               AG WELLS  =           0.0000                 AG WELLS  =           0.0000
      DIVERSION SEGMENTS =           0.0000        DIVERSION SEGMENTS =           0.0000
           GW IRRIGATION =   964111616.0000             GW IRRIGATION =           0.0000
           SW IRRIGATION =   502255776.0000             SW IRRIGATION =           0.0000
        SYSTEM LOSSES GW =           0.0000          SYSTEM LOSSES GW =           0.0000
        SYSTEM LOSSES SW =           0.0000          SYSTEM LOSSES SW =           0.0000

               TOTAL OUT =  1466367360.0000                 TOTAL OUT =           0.0000

                IN - OUT =       -9472.0000                  IN - OUT =           0.0000

     PERCENT DISCREPANCY =          -0.00         PERCENT DISCREPANCY =           0.00



1
  VOLUMETRIC BUDGET FOR ENTIRE MODEL AT END OF TIME STEP   30, STRESS PERIOD  41
  ------------------------------------------------------------------------------

     CUMULATIVE VOLUMES      L**3       RATES FOR THIS TIME STEP      L**3/T
     ------------------                 ------------------------

           IN:                                      IN:
           ---                                      ---
             STORAGE     =  1457421184.0000               STORAGE     =           1.8213
       CONSTANT HEAD     =           0.0000         CONSTANT HEAD     =           0.0000
     HEAD DEP BOUNDS     =    30385566.0000       HEAD DEP BOUNDS     =           0.2901
      STREAM LEAKAGE     =  1261476352.0000        STREAM LEAKAGE     =          12.8520
        UZF RECHARGE     =    65456092.0000          UZF RECHARGE     =           0.1898
               GW ET     =           0.0000                 GW ET     =           0.0000
     SURFACE LEAKAGE     =           0.0000       SURFACE LEAKAGE     =           0.0000
           AG WELLS      =           0.0000             AG WELLS      =           0.0000

                TOTAL IN =  2814739200.0000                  TOTAL IN =          15.1531

          OUT:                                     OUT:
          ----                                     ----
             STORAGE     =   783653952.0000               STORAGE     =           5.4159
       CONSTANT HEAD     =           0.0000         CONSTANT HEAD     =           0.0000
     HEAD DEP BOUNDS     =    30319108.0000       HEAD DEP BOUNDS     =           0.2902
      STREAM LEAKAGE     =  1036671104.0000        STREAM LEAKAGE     =           9.4476
        UZF RECHARGE     =           0.0000          UZF RECHARGE     =           0.0000
               GW ET     =           0.0000                 GW ET     =           0.0000
     SURFACE LEAKAGE     =           0.0000       SURFACE LEAKAGE     =           0.0000
           AG WELLS      =   964111616.0000             AG WELLS      =           0.0000

               TOTAL OUT =  2814755840.0000                 TOTAL OUT =          15.1537

                IN - OUT =      -16640.0000                  IN - OUT =      -5.2738E-04

     PERCENT DISCREPANCY =          -0.00         PERCENT DISCREPANCY =          -0.00






         TIME SUMMARY AT END OF TIME STEP   30 IN STRESS PERIOD   41
                    SECONDS     MINUTES      HOURS       DAYS        YEARS
                    -----------------------------------------------------------
   TIME STEP LENGTH  87667.      1461.1      24.352      1.0147     2.77799E-03
 STRESS PERIOD TIME 2.63000E+06  43833.      730.56      30.440     8.33397E-02
         TOTAL TIME 1.05286E+08 1.75476E+06  29246.      1218.6      3.3363    
1
1
                            STRESS PERIOD NO.   42, LENGTH =   2630000.    
                            -----------------------------------------------

                              NUMBER OF TIME STEPS =    30

                               MULTIPLIER FOR DELT =     1.000

                            INITIAL TIME STEP SIZE =   87666.66    

 REUSING NON-PARAMETER GHB CELLS FROM LAST STRESS PERIOD

      2 GHB CELLS

 REUSING STREAM SEGMENT DATA FROM LAST STRESS PERIOD



            AREAL INFILTRATION RATE
 READING ON UNIT   19 WITH FORMAT: (FREE)              

            1           2           3           4           5           6           7           8           9          10
 ........................................................................................................................
   1   1.0000E-10  2.0000E-10   0.000       0.000       0.000       0.000       0.000       0.000       0.000       0.000    
   2   2.0000E-10  1.0000E-10  2.0000E-10   0.000       0.000      8.0000E-10  8.0000E-10  5.0000E-10   0.000       0.000    
   3    0.000      5.0000E-10  1.0000E-10  1.0000E-10  8.0000E-10  8.0000E-10  5.0000E-10  5.0000E-10   0.000       0.000    
   4   8.0000E-10  5.0000E-10  1.0000E-10  1.0000E-10  1.0000E-10  1.0000E-10  1.0000E-10  1.0000E-10  2.0000E-10   0.000    
   5   8.0000E-10  5.0000E-10  1.0000E-10  1.0000E-10  1.0000E-10  1.0000E-10  1.0000E-10  1.0000E-10  1.0000E-10  1.0000E-10
   6   8.0000E-10  5.0000E-10  5.0000E-10  2.0000E-10  2.0000E-10  1.0000E-10  1.0000E-10  1.0000E-10  1.0000E-10  5.0000E-10
   7   8.0000E-10  5.0000E-10  5.0000E-10  2.0000E-10  2.0000E-10  1.0000E-10  1.0000E-10  2.0000E-10  2.0000E-10   0.000    
   8    0.000      5.0000E-10  5.0000E-10  2.0000E-10  2.0000E-10  1.0000E-10  1.0000E-10  2.0000E-10  5.0000E-10   0.000    
   9    0.000      5.0000E-10  5.0000E-10  2.0000E-10  2.0000E-10  1.0000E-10  1.0000E-10  2.0000E-10  5.0000E-10   0.000    
  10    0.000      5.0000E-10  5.0000E-10  2.0000E-10  2.0000E-10  1.0000E-10  1.0000E-10  2.0000E-10  5.0000E-10  8.0000E-10
  11    0.000      1.0000E-10  1.0000E-10  1.0000E-10  1.0000E-10  1.0000E-10  1.0000E-10  2.0000E-10  5.0000E-10   0.000    
  12   1.0000E-10  1.0000E-10  1.0000E-10  1.0000E-10  1.0000E-10  1.0000E-10  1.0000E-10  1.0000E-10  2.0000E-10   0.000    
  13   1.0000E-10  1.0000E-10  2.0000E-10  2.0000E-10  2.0000E-10  2.0000E-10  2.0000E-10  1.0000E-10  1.0000E-10   0.000    
  14    0.000      2.0000E-10  5.0000E-10  5.0000E-10  5.0000E-10  5.0000E-10  5.0000E-10  2.0000E-10  1.0000E-10   0.000    
  15    0.000       0.000      8.0000E-10  8.0000E-10  8.0000E-10  8.0000E-10   0.000       0.000       0.000       0.000    

                  ET RATE =  5.000000E-08

 USING ET EXTINCTION DEPTH FROM PREVIOUS STRESS PERIOD. CURRENT PERIOD IS:      42

 USING EXTINCTION WATER CONTENT FROM PREVIOUS STRESS PERIOD. CURRENT PERIOD IS:      42

 USING AIR ENTRY PRESSURE FROM PREVIOUS STRESS PERIOD. CURRENT PERIOD IS:      42

 USING ROOT PRESSURE HEAD FROM PREVIOUS STRESS PERIOD. CURRENT PERIOD IS:      42

 USING ROOT ACTIVITY FROM PREVIOUS STRESS PERIOD. CURRENT PERIOD IS:      42

 PROCESSING AG STRESS PERIOD DATA

 READING AG STRESS PERIOD DATA

 READING IRRIGATION SEGMENT

 READING IRRIGATION WELL

 READING SUPPLEMENTAL WELL

 END PROCESSING AG STRESS PERIOD DATA OPTIONS
 
 SOLVING FOR HEAD 
                                                   Max.-Head-Change                         Max.-Flux-Residual
  Residual-Control   Outer-Iter.   Inner-Iter.     Column Row Layer    Maximum-Head-Change  Column Row Layer    Maximum-Flux-Residual          L2-NORM 
          0                 1           2             3    7     1       0.5564414433E-02       4    7    1         0.2335745490E+00      0.9310597759E+00
          0                 2           2             4    7     1      -0.2301154992E-01       5    8    1        -0.1237012866E+01      0.3042868217E+01
          0                 3           2             4    7     1       0.2351908526E-01       5    8    1         0.1303379165E+01      0.3198579662E+01
          0                 4           2             5    8     1      -0.3612421035E-03       5    8    1        -0.2106565442E-01      0.5347804992E-01
          0                 5           1             5    8     1      -0.4069294790E-04       5    8    1        -0.2371860472E-02      0.5611771073E-02

    ------------------------------------------------
       NWT REQUIRED            5 OUTER ITERATIONS 
       AND A TOTAL OF          9 INNER ITERATIONS.
    ------------------------------------------------

 NO OUTPUT CONTROL FOR STRESS PERIOD   42   TIME STEP    1
 
 SOLVING FOR HEAD 
                                                   Max.-Head-Change                         Max.-Flux-Residual
  Residual-Control   Outer-Iter.   Inner-Iter.     Column Row Layer    Maximum-Head-Change  Column Row Layer    Maximum-Flux-Residual          L2-NORM 
          0                 1           2             3    7     1       0.5538852858E-02       4    7    1         0.2327115310E+00      0.9205892914E+00
          0                 2           2             3    7     1      -0.5329223507E-03       4    5    1        -0.1991999937E-01      0.7883776570E-01
          0                 3           1             3    7     1       0.3651404372E-04       4    5    1         0.1398022954E-02      0.5368977136E-02

    ------------------------------------------------
       NWT REQUIRED            3 OUTER ITERATIONS 
       AND A TOTAL OF          5 INNER ITERATIONS.
    ------------------------------------------------

 NO OUTPUT CONTROL FOR STRESS PERIOD   42   TIME STEP    2
 
 SOLVING FOR HEAD 
                                                   Max.-Head-Change                         Max.-Flux-Residual
  Residual-Control   Outer-Iter.   Inner-Iter.     Column Row Layer    Maximum-Head-Change  Column Row Layer    Maximum-Flux-Residual          L2-NORM 
          0                 1           2             3    7     1       0.5513524398E-02       4    7    1         0.2318453273E+00      0.9173563269E+00
          0                 2           2             4    7     1      -0.2298745238E-01       5    8    1        -0.1235716110E+01      0.3040335966E+01
          0                 3           2             4    7     1       0.2349715099E-01       5    8    1         0.1302157025E+01      0.3195578999E+01
          0                 4           2             5    8     1      -0.3641050483E-03       5    8    1        -0.2123194005E-01      0.5382181362E-01
          0                 5           1             5    8     1      -0.4101689576E-04       5    8    1        -0.2390666558E-02      0.5655410291E-02

    ------------------------------------------------
       NWT REQUIRED            5 OUTER ITERATIONS 
       AND A TOTAL OF          9 INNER ITERATIONS.
    ------------------------------------------------

 NO OUTPUT CONTROL FOR STRESS PERIOD   42   TIME STEP    3
 
 SOLVING FOR HEAD 
                                                   Max.-Head-Change                         Max.-Flux-Residual
  Residual-Control   Outer-Iter.   Inner-Iter.     Column Row Layer    Maximum-Head-Change  Column Row Layer    Maximum-Flux-Residual          L2-NORM 
          0                 1           2             3    7     1       0.5488334611E-02       4    7    1         0.2309813461E+00      0.9113329699E+00
          0                 2           2             3    7     1      -0.5280518269E-03       4    5    1        -0.1980724777E-01      0.7800891322E-01
          0                 3           1             3    7     1       0.3618071107E-04       4    5    1         0.1390104773E-02      0.5314618000E-02

    ------------------------------------------------
       NWT REQUIRED            3 OUTER ITERATIONS 
       AND A TOTAL OF          5 INNER ITERATIONS.
    ------------------------------------------------

 NO OUTPUT CONTROL FOR STRESS PERIOD   42   TIME STEP    4
 
 SOLVING FOR HEAD 
                                                   Max.-Head-Change                         Max.-Flux-Residual
  Residual-Control   Outer-Iter.   Inner-Iter.     Column Row Layer    Maximum-Head-Change  Column Row Layer    Maximum-Flux-Residual          L2-NORM 
          0                 1           2             3    7     1       0.5463370464E-02       4    7    1         0.2301221655E+00      0.9087417567E+00
          0                 2           2             4    7     1      -0.2298943605E-01       5    8    1        -0.1235819005E+01      0.3041158480E+01
          0                 3           2             4    7     1       0.2350235262E-01       5    8    1         0.1302429810E+01      0.3196253570E+01
          0                 4           2             5    8     1      -0.3678274690E-03       5    8    1        -0.2144815051E-01      0.5428784859E-01
          0                 5           1             5    8     1      -0.4143808031E-04       5    8    1        -0.2415118313E-02      0.5713097035E-02

    ------------------------------------------------
       NWT REQUIRED            5 OUTER ITERATIONS 
       AND A TOTAL OF          9 INNER ITERATIONS.
    ------------------------------------------------

 NO OUTPUT CONTROL FOR STRESS PERIOD   42   TIME STEP    5
 
 SOLVING FOR HEAD 
                                                   Max.-Head-Change                         Max.-Flux-Residual
  Residual-Control   Outer-Iter.   Inner-Iter.     Column Row Layer    Maximum-Head-Change  Column Row Layer    Maximum-Flux-Residual          L2-NORM 
          0                 1           2             3    7     1       0.5438537899E-02       4    7    1         0.2292578148E+00      0.9059460931E+00
          0                 2           2             3    7     1      -0.5232513105E-03       4    5    1        -0.1969459686E-01      0.7760492618E-01
          0                 3           1             3    7     1       0.3585215271E-04       4    5    1         0.1382193660E-02      0.5288366867E-02

    ------------------------------------------------
       NWT REQUIRED            3 OUTER ITERATIONS 
       AND A TOTAL OF          5 INNER ITERATIONS.
    ------------------------------------------------

 NO OUTPUT CONTROL FOR STRESS PERIOD   42   TIME STEP    6
 
 SOLVING FOR HEAD 
                                                   Max.-Head-Change                         Max.-Flux-Residual
  Residual-Control   Outer-Iter.   Inner-Iter.     Column Row Layer    Maximum-Head-Change  Column Row Layer    Maximum-Flux-Residual          L2-NORM 
          0                 1           2             3    7     1       0.5414167265E-02       4    7    1         0.2283986963E+00      0.9034065911E+00
          0                 2           2             4    7     1      -0.2299087103E-01       5    8    1        -0.1235890803E+01      0.3041827385E+01
          0                 3           2             4    7     1       0.2350698173E-01       5    8    1         0.1302664923E+01      0.3197309937E+01
          0                 4           2             5    8     1      -0.3714315253E-03       5    8    1        -0.2165740252E-01      0.5287035239E-01
          0                 5           1             5    8     1      -0.4184604866E-04       5    8    1        -0.2438793602E-02      0.5630571208E-02

    ------------------------------------------------
       NWT REQUIRED            5 OUTER ITERATIONS 
       AND A TOTAL OF          9 INNER ITERATIONS.
    ------------------------------------------------

 NO OUTPUT CONTROL FOR STRESS PERIOD   42   TIME STEP    7
 
 SOLVING FOR HEAD 
                                                   Max.-Head-Change                         Max.-Flux-Residual
  Residual-Control   Outer-Iter.   Inner-Iter.     Column Row Layer    Maximum-Head-Change  Column Row Layer    Maximum-Flux-Residual          L2-NORM 
          0                 1           2             3    7     1       0.5389674126E-02       4    7    1         0.2275424833E+00      0.9029373614E+00
          0                 2           2             3    7     1      -0.5185413053E-03       4    5    1        -0.1958023612E-01      0.7745969625E-01
          0                 3           1             3    7     1       0.3552976845E-04       4    5    1         0.1374162984E-02      0.5279256847E-02

    ------------------------------------------------
       NWT REQUIRED            3 OUTER ITERATIONS 
       AND A TOTAL OF          5 INNER ITERATIONS.
    ------------------------------------------------

 NO OUTPUT CONTROL FOR STRESS PERIOD   42   TIME STEP    8
 
 SOLVING FOR HEAD 
                                                   Max.-Head-Change                         Max.-Flux-Residual
  Residual-Control   Outer-Iter.   Inner-Iter.     Column Row Layer    Maximum-Head-Change  Column Row Layer    Maximum-Flux-Residual          L2-NORM 
          0                 1           2             3    7     1       0.5365637038E-02       4    7    1         0.2266915695E+00      0.9000956495E+00
          0                 2           2             4    7     1      -0.2299229632E-01       5    8    1        -0.1235961277E+01      0.3042426163E+01
          0                 3           2             4    7     1       0.2351157099E-01       5    8    1         0.1302895044E+01      0.3198111795E+01
          0                 4           2             5    8     1      -0.3749550724E-03       5    8    1        -0.2186191312E-01      0.5249163245E-01
          0                 5           1             5    8     1      -0.4224504503E-04       5    8    1        -0.2461940891E-02      0.5627291325E-02

    ------------------------------------------------
       NWT REQUIRED            5 OUTER ITERATIONS 
       AND A TOTAL OF          9 INNER ITERATIONS.
    ------------------------------------------------

 NO OUTPUT CONTROL FOR STRESS PERIOD   42   TIME STEP    9
 
 SOLVING FOR HEAD 
                                                   Max.-Head-Change                         Max.-Flux-Residual
  Residual-Control   Outer-Iter.   Inner-Iter.     Column Row Layer    Maximum-Head-Change  Column Row Layer    Maximum-Flux-Residual          L2-NORM 
          0                 1           2             3    7     1       0.5341714592E-02       4    7    1         0.2258360946E+00      0.9013145830E+00
          0                 2           2             3    7     1      -0.5139190149E-03       4    5    1        -0.1946608346E-01      0.7746310412E-01
          0                 3           1             3    7     1       0.3521336706E-04       4    5    1         0.1366147060E-02      0.5279924968E-02

    ------------------------------------------------
       NWT REQUIRED            3 OUTER ITERATIONS 
       AND A TOTAL OF          5 INNER ITERATIONS.
    ------------------------------------------------

 NO OUTPUT CONTROL FOR STRESS PERIOD   42   TIME STEP   10
 
 SOLVING FOR HEAD 
                                                   Max.-Head-Change                         Max.-Flux-Residual
  Residual-Control   Outer-Iter.   Inner-Iter.     Column Row Layer    Maximum-Head-Change  Column Row Layer    Maximum-Flux-Residual          L2-NORM 
          0                 1           2             3    7     1       0.5317749462E-02       4    7    1         0.2249865441E+00      0.8979817740E+00
          0                 2           2             4    7     1      -0.2299371486E-01       5    8    1        -0.1236030449E+01      0.3042962250E+01
          0                 3           2             4    7     1       0.2351614750E-01       5    8    1         0.1303121061E+01      0.3198692040E+01
          0                 4           2             5    8     1      -0.3784153198E-03       5    8    1        -0.2206273630E-01      0.5296197835E-01
          0                 5           1             5    8     1      -0.4263690330E-04       5    8    1        -0.2484672513E-02      0.5684173020E-02

    ------------------------------------------------
       NWT REQUIRED            5 OUTER ITERATIONS 
       AND A TOTAL OF          9 INNER ITERATIONS.
    ------------------------------------------------

 NO OUTPUT CONTROL FOR STRESS PERIOD   42   TIME STEP   11
 
 SOLVING FOR HEAD 
                                                   Max.-Head-Change                         Max.-Flux-Residual
  Residual-Control   Outer-Iter.   Inner-Iter.     Column Row Layer    Maximum-Head-Change  Column Row Layer    Maximum-Flux-Residual          L2-NORM 
          0                 1           2             3    7     1       0.5294385955E-02       4    7    1         0.2241402888E+00      0.9004364795E+00
          0                 2           2             3    7     1      -0.5093577985E-03       4    5    1        -0.1935171226E-01      0.7754359990E-01
          0                 3           1             3    7     1       0.3490113786E-04       4    5    1         0.1358116062E-02      0.5285726317E-02

    ------------------------------------------------
       NWT REQUIRED            3 OUTER ITERATIONS 
       AND A TOTAL OF          5 INNER ITERATIONS.
    ------------------------------------------------

 NO OUTPUT CONTROL FOR STRESS PERIOD   42   TIME STEP   12
 
 SOLVING FOR HEAD 
                                                   Max.-Head-Change                         Max.-Flux-Residual
  Residual-Control   Outer-Iter.   Inner-Iter.     Column Row Layer    Maximum-Head-Change  Column Row Layer    Maximum-Flux-Residual          L2-NORM 
          0                 1           2             3    7     1       0.5270970525E-02       4    7    1         0.2232927585E+00      0.8965177346E+00
          0                 2           2             4    7     1      -0.2299512173E-01       5    8    1        -0.1236097910E+01      0.3043444523E+01
          0                 3           2             4    7     1       0.2352069047E-01       5    8    1         0.1303341019E+01      0.3199277070E+01
          0                 4           2             5    8     1      -0.3817821497E-03       5    8    1        -0.2225805144E-01      0.5336270647E-01
          0                 5           1             5    8     1      -0.4301836465E-04       5    8    1        -0.2506791527E-02      0.5735109406E-02

    ------------------------------------------------
       NWT REQUIRED            5 OUTER ITERATIONS 
       AND A TOTAL OF          9 INNER ITERATIONS.
    ------------------------------------------------

 NO OUTPUT CONTROL FOR STRESS PERIOD   42   TIME STEP   13
 
 SOLVING FOR HEAD 
                                                   Max.-Head-Change                         Max.-Flux-Residual
  Residual-Control   Outer-Iter.   Inner-Iter.     Column Row Layer    Maximum-Head-Change  Column Row Layer    Maximum-Flux-Residual          L2-NORM 
          0                 1           2             3    7     1       0.5247659682E-02       4    7    1         0.2224489094E+00      0.8998716031E+00
          0                 2           2             3    7     1      -0.5048550386E-03       4    5    1        -0.1923739429E-01      0.7765464418E-01
          0                 3           1             3    7     1       0.3459289601E-04       4    5    1         0.1350088863E-02      0.5293381108E-02

    ------------------------------------------------
       NWT REQUIRED            3 OUTER ITERATIONS 
       AND A TOTAL OF          5 INNER ITERATIONS.
    ------------------------------------------------

 NO OUTPUT CONTROL FOR STRESS PERIOD   42   TIME STEP   14
 
 SOLVING FOR HEAD 
                                                   Max.-Head-Change                         Max.-Flux-Residual
  Residual-Control   Outer-Iter.   Inner-Iter.     Column Row Layer    Maximum-Head-Change  Column Row Layer    Maximum-Flux-Residual          L2-NORM 
          0                 1           2             3    7     1       0.5224781895E-02       4    7    1         0.2216114221E+00      0.8953496956E+00
          0                 2           2             4    7     1      -0.2299651853E-01       5    8    1        -0.1236164087E+01      0.3043879827E+01
          0                 3           2             4    7     1       0.2352519970E-01       5    8    1         0.1303556300E+01      0.3199903051E+01
          0                 4           2             5    8     1      -0.3850751248E-03       5    8    1        -0.2244902808E-01      0.5356543614E-01
          0                 5           1             5    8     1      -0.4339157218E-04       5    8    1        -0.2528426033E-02      0.5772859577E-02

    ------------------------------------------------
       NWT REQUIRED            5 OUTER ITERATIONS 
       AND A TOTAL OF          9 INNER ITERATIONS.
    ------------------------------------------------

 NO OUTPUT CONTROL FOR STRESS PERIOD   42   TIME STEP   15
 
 SOLVING FOR HEAD 
                                                   Max.-Head-Change                         Max.-Flux-Residual
  Residual-Control   Outer-Iter.   Inner-Iter.     Column Row Layer    Maximum-Head-Change  Column Row Layer    Maximum-Flux-Residual          L2-NORM 
          0                 1           2             3    7     1       0.5201758048E-02       4    7    1         0.2207776141E+00      0.8993703382E+00
          0                 2           2             3    7     1      -0.5004319961E-03       4    5    1        -0.1912406806E-01      0.7776835366E-01
          0                 3           1             3    7     1       0.3429010131E-04       4    5    1         0.1342131278E-02      0.5301380656E-02

    ------------------------------------------------
       NWT REQUIRED            3 OUTER ITERATIONS 
       AND A TOTAL OF          5 INNER ITERATIONS.
    ------------------------------------------------

 NO OUTPUT CONTROL FOR STRESS PERIOD   42   TIME STEP   16
 
 SOLVING FOR HEAD 
                                                   Max.-Head-Change                         Max.-Flux-Residual
  Residual-Control   Outer-Iter.   Inner-Iter.     Column Row Layer    Maximum-Head-Change  Column Row Layer    Maximum-Flux-Residual          L2-NORM 
          0                 1           2             3    7     1       0.5179161915E-02       4    7    1         0.2199426387E+00      0.8942548965E+00
          0                 2           2             4    7     1      -0.2299790139E-01       5    8    1        -0.1236228837E+01      0.3044275093E+01
          0                 3           2             4    7     1       0.2352967137E-01       5    8    1         0.1303766889E+01      0.3200456322E+01
          0                 4           2             5    8     1      -0.3882982715E-03       5    8    1        -0.2263587849E-01      0.5401962493E-01
          0                 5           1             5    8     1      -0.4375702636E-04       5    8    1        -0.2549602742E-02      0.5827705421E-02

    ------------------------------------------------
       NWT REQUIRED            5 OUTER ITERATIONS 
       AND A TOTAL OF          9 INNER ITERATIONS.
    ------------------------------------------------

 NO OUTPUT CONTROL FOR STRESS PERIOD   42   TIME STEP   17
 
 SOLVING FOR HEAD 
                                                   Max.-Head-Change                         Max.-Flux-Residual
  Residual-Control   Outer-Iter.   Inner-Iter.     Column Row Layer    Maximum-Head-Change  Column Row Layer    Maximum-Flux-Residual          L2-NORM 
          0                 1           2             3    7     1       0.5156658087E-02       4    7    1         0.2191116178E+00      0.8987816655E+00
          0                 2           2             3    7     1      -0.4960867651E-03       4    5    1        -0.1901113171E-01      0.7786821791E-01
          0                 3           1             3    7     1       0.3399261425E-04       4    5    1         0.1334201292E-02      0.5308293423E-02

    ------------------------------------------------
       NWT REQUIRED            3 OUTER ITERATIONS 
       AND A TOTAL OF          5 INNER ITERATIONS.
    ------------------------------------------------

 NO OUTPUT CONTROL FOR STRESS PERIOD   42   TIME STEP   18
 
 SOLVING FOR HEAD 
                                                   Max.-Head-Change                         Max.-Flux-Residual
  Residual-Control   Outer-Iter.   Inner-Iter.     Column Row Layer    Maximum-Head-Change  Column Row Layer    Maximum-Flux-Residual          L2-NORM 
          0                 1           2             3    7     1       0.5134330993E-02       4    7    1         0.2182873751E+00      0.8931136226E+00
          0                 2           2             4    7     1      -0.2299927284E-01       5    8    1        -0.1236292412E+01      0.3044635923E+01
          0                 3           2             4    7     1       0.2353410558E-01       5    8    1         0.1303973223E+01      0.3201000033E+01
          0                 4           2             5    8     1      -0.3914536551E-03       5    8    1        -0.2281878271E-01      0.5446648665E-01
          0                 5           1             5    8     1      -0.4411483623E-04       5    8    1        -0.2570334442E-02      0.5881593049E-02

    ------------------------------------------------
       NWT REQUIRED            5 OUTER ITERATIONS 
       AND A TOTAL OF          9 INNER ITERATIONS.
    ------------------------------------------------

 NO OUTPUT CONTROL FOR STRESS PERIOD   42   TIME STEP   19
 
 SOLVING FOR HEAD 
                                                   Max.-Head-Change                         Max.-Flux-Residual
  Residual-Control   Outer-Iter.   Inner-Iter.     Column Row Layer    Maximum-Head-Change  Column Row Layer    Maximum-Flux-Residual          L2-NORM 
          0                 1           2             3    7     1       0.5112332535E-02       4    7    1         0.2174596779E+00      0.8980201873E+00
          0                 2           2             3    7     1      -0.4918164934E-03       4    5    1        -0.1889951182E-01      0.7794536997E-01
          0                 3           1             3    7     1       0.3370024667E-04       4    5    1         0.1326363573E-02      0.5313488906E-02

    ------------------------------------------------
       NWT REQUIRED            3 OUTER ITERATIONS 
       AND A TOTAL OF          5 INNER ITERATIONS.
    ------------------------------------------------

 NO OUTPUT CONTROL FOR STRESS PERIOD   42   TIME STEP   20
 
 SOLVING FOR HEAD 
                                                   Max.-Head-Change                         Max.-Flux-Residual
  Residual-Control   Outer-Iter.   Inner-Iter.     Column Row Layer    Maximum-Head-Change  Column Row Layer    Maximum-Flux-Residual          L2-NORM 
          0                 1           2             3    7     1       0.5090259378E-02       4    7    1         0.2166392234E+00      0.8918383715E+00
          0                 2           2             4    7     1      -0.2300063526E-01       5    8    1        -0.1236354795E+01      0.3044966124E+01
          0                 3           2             4    7     1       0.2353851634E-01       5    8    1         0.1304175450E+01      0.3201535920E+01
          0                 4           2             5    8     1      -0.3945460161E-03       5    8    1        -0.2299799072E-01      0.5490719311E-01
          0                 5           1             5    8     1      -0.4446559205E-04       5    8    1        -0.2590652646E-02      0.5934734127E-02

    ------------------------------------------------
       NWT REQUIRED            5 OUTER ITERATIONS 
       AND A TOTAL OF          9 INNER ITERATIONS.
    ------------------------------------------------

 NO OUTPUT CONTROL FOR STRESS PERIOD   42   TIME STEP   21
 
 SOLVING FOR HEAD 
                                                   Max.-Head-Change                         Max.-Flux-Residual
  Residual-Control   Outer-Iter.   Inner-Iter.     Column Row Layer    Maximum-Head-Change  Column Row Layer    Maximum-Flux-Residual          L2-NORM 
          0                 1           2             3    7     1       0.5068513820E-02       4    7    1         0.2158228102E+00      0.8970404631E+00
          0                 2           2             3    7     1      -0.4875951433E-03       4    5    1        -0.1878854352E-01      0.7799516068E-01
          0                 3           1             3    7     1       0.3341122529E-04       4    5    1         0.1318571749E-02      0.5316429184E-02

    ------------------------------------------------
       NWT REQUIRED            3 OUTER ITERATIONS 
       AND A TOTAL OF          5 INNER ITERATIONS.
    ------------------------------------------------

 NO OUTPUT CONTROL FOR STRESS PERIOD   42   TIME STEP   22
 
 SOLVING FOR HEAD 
                                                   Max.-Head-Change                         Max.-Flux-Residual
  Residual-Control   Outer-Iter.   Inner-Iter.     Column Row Layer    Maximum-Head-Change  Column Row Layer    Maximum-Flux-Residual          L2-NORM 
          0                 1           2             3    7     1       0.5046930739E-02       4    7    1         0.2150134555E+00      0.8903995806E+00
          0                 2           2             4    7     1      -0.2300197945E-01       5    8    1        -0.1236416045E+01      0.3045270132E+01
          0                 3           2             4    7     1       0.2354286761E-01       5    8    1         0.1304373755E+01      0.3202070189E+01
          0                 4           2             5    8     1      -0.3975781867E-03       5    8    1        -0.2317367327E-01      0.5531432191E-01
          0                 5           1             5    8     1      -0.4480959867E-04       5    8    1        -0.2610575819E-02      0.5984894926E-02

    ------------------------------------------------
       NWT REQUIRED            5 OUTER ITERATIONS 
       AND A TOTAL OF          9 INNER ITERATIONS.
    ------------------------------------------------

 NO OUTPUT CONTROL FOR STRESS PERIOD   42   TIME STEP   23
 
 SOLVING FOR HEAD 
                                                   Max.-Head-Change                         Max.-Flux-Residual
  Residual-Control   Outer-Iter.   Inner-Iter.     Column Row Layer    Maximum-Head-Change  Column Row Layer    Maximum-Flux-Residual          L2-NORM 
          0                 1           2             3    7     1       0.5025424747E-02       4    7    1         0.2142080844E+00      0.8958358298E+00
          0                 2           2             3    7     1      -0.4834442242E-03       4    5    1        -0.1867830622E-01      0.7801745541E-01
          0                 3           1             3    7     1       0.3312701986E-04       4    5    1         0.1310831232E-02      0.5318796513E-02

    ------------------------------------------------
       NWT REQUIRED            3 OUTER ITERATIONS 
       AND A TOTAL OF          5 INNER ITERATIONS.
    ------------------------------------------------

 NO OUTPUT CONTROL FOR STRESS PERIOD   42   TIME STEP   24
 
 SOLVING FOR HEAD 
                                                   Max.-Head-Change                         Max.-Flux-Residual
  Residual-Control   Outer-Iter.   Inner-Iter.     Column Row Layer    Maximum-Head-Change  Column Row Layer    Maximum-Flux-Residual          L2-NORM 
          0                 1           2             3    7     1       0.5004078670E-02       4    7    1         0.2134021675E+00      0.8887816893E+00
          0                 2           2             4    7     1      -0.2300331018E-01       5    8    1        -0.1236476196E+01      0.3045552105E+01
          0                 3           2             4    7     1       0.2354717818E-01       5    8    1         0.1304568371E+01      0.3202589854E+01
          0                 4           2             5    8     1      -0.4005538035E-03       5    8    1        -0.2334604709E-01      0.5574446470E-01
          0                 5           1             5    8     1      -0.4514725664E-04       5    8    1        -0.2630127800E-02      0.6036840253E-02

    ------------------------------------------------
       NWT REQUIRED            5 OUTER ITERATIONS 
       AND A TOTAL OF          9 INNER ITERATIONS.
    ------------------------------------------------

 NO OUTPUT CONTROL FOR STRESS PERIOD   42   TIME STEP   25
 
 SOLVING FOR HEAD 
                                                   Max.-Head-Change                         Max.-Flux-Residual
  Residual-Control   Outer-Iter.   Inner-Iter.     Column Row Layer    Maximum-Head-Change  Column Row Layer    Maximum-Flux-Residual          L2-NORM 
          0                 1           2             3    7     1       0.4982806480E-02       4    7    1         0.2126006661E+00      0.8944078849E+00
          0                 2           2             3    7     1      -0.4793388772E-03       4    5    1        -0.1856965561E-01      0.7801203873E-01
          0                 3           1             3    7     1       0.3284592894E-04       4    5    1         0.1303202131E-02      0.5318122061E-02

    ------------------------------------------------
       NWT REQUIRED            3 OUTER ITERATIONS 
       AND A TOTAL OF          5 INNER ITERATIONS.
    ------------------------------------------------

 NO OUTPUT CONTROL FOR STRESS PERIOD   42   TIME STEP   26
 
 SOLVING FOR HEAD 
                                                   Max.-Head-Change                         Max.-Flux-Residual
  Residual-Control   Outer-Iter.   Inner-Iter.     Column Row Layer    Maximum-Head-Change  Column Row Layer    Maximum-Flux-Residual          L2-NORM 
          0                 1           2             3    7     1       0.4961930597E-02       4    7    1         0.2117990879E+00      0.8869859009E+00
          0                 2           2             4    7     1      -0.2300463157E-01       5    8    1        -0.1236535347E+01      0.3045814205E+01
          0                 3           2             4    7     1       0.2355146330E-01       5    8    1         0.1304759505E+01      0.3203102716E+01
          0                 4           2             5    8     1      -0.4034763348E-03       5    8    1        -0.2351530344E-01      0.5616906717E-01
          0                 5           1             5    8     1      -0.4547898041E-04       5    8    1        -0.2649331531E-02      0.6087922908E-02

    ------------------------------------------------
       NWT REQUIRED            5 OUTER ITERATIONS 
       AND A TOTAL OF          9 INNER ITERATIONS.
    ------------------------------------------------

 NO OUTPUT CONTROL FOR STRESS PERIOD   42   TIME STEP   27
 
 SOLVING FOR HEAD 
                                                   Max.-Head-Change                         Max.-Flux-Residual
  Residual-Control   Outer-Iter.   Inner-Iter.     Column Row Layer    Maximum-Head-Change  Column Row Layer    Maximum-Flux-Residual          L2-NORM 
          0                 1           2             3    7     1       0.4941122307E-02       4    7    1         0.2110092181E+00      0.8927703526E+00
          0                 2           2             3    7     1      -0.4753239953E-03       4    5    1        -0.1846181297E-01      0.7798157554E-01
          0                 3           1             3    7     1       0.3257101305E-04       4    5    1         0.1295629805E-02      0.5316231445E-02

    ------------------------------------------------
       NWT REQUIRED            3 OUTER ITERATIONS 
       AND A TOTAL OF          5 INNER ITERATIONS.
    ------------------------------------------------

 NO OUTPUT CONTROL FOR STRESS PERIOD   42   TIME STEP   28
 
 SOLVING FOR HEAD 
                                                   Max.-Head-Change                         Max.-Flux-Residual
  Residual-Control   Outer-Iter.   Inner-Iter.     Column Row Layer    Maximum-Head-Change  Column Row Layer    Maximum-Flux-Residual          L2-NORM 
          0                 1           2             3    7     1       0.4920218574E-02       4    7    1         0.2102192128E+00      0.8850268560E+00
          0                 2           2             4    7     1      -0.2300593628E-01       5    8    1        -0.1236593399E+01      0.3046059415E+01
          0                 3           2             4    7     1       0.2355568912E-01       5    8    1         0.1304946433E+01      0.3203607878E+01
          0                 4           2             5    8     1      -0.4063322036E-03       5    8    1        -0.2368065472E-01      0.5658804344E-01
          0                 5           1             5    8     1      -0.4580323129E-04       5    8    1        -0.2668097773E-02      0.6138259502E-02

    ------------------------------------------------
       NWT REQUIRED            5 OUTER ITERATIONS 
       AND A TOTAL OF          9 INNER ITERATIONS.
    ------------------------------------------------

 NO OUTPUT CONTROL FOR STRESS PERIOD   42   TIME STEP   29
 
 SOLVING FOR HEAD 
                                                   Max.-Head-Change                         Max.-Flux-Residual
  Residual-Control   Outer-Iter.   Inner-Iter.     Column Row Layer    Maximum-Head-Change  Column Row Layer    Maximum-Flux-Residual          L2-NORM 
          0                 1           2             3    7     1       0.4899869880E-02       4    7    1         0.2094333686E+00      0.8909417995E+00
          0                 2           2             3    7     1      -0.4713507042E-03       4    5    1        -0.1835485661E-01      0.7792794017E-01
          0                 3           1             3    7     1       0.3229894612E-04       4    5    1         0.1288119748E-02      0.5312792466E-02

    ------------------------------------------------
       NWT REQUIRED            3 OUTER ITERATIONS 
       AND A TOTAL OF          5 INNER ITERATIONS.
    ------------------------------------------------

 NO OUTPUT CONTROL FOR STRESS PERIOD   42   TIME STEP   30



 STREAM LISTING     PERIOD     42   STEP       30

 LAYER ROW COL. STREAM  RCH.  FLOW INTO     FLOW TO   FLOW OUT OF   OVRLND.     DIRECT     STREAM       STREAM     STREAM     STREAM   STREAMBED  STREAMBED
                SEG.NO.  NO.  STRM. RCH.    AQUIFER    STRM. RCH.    RUNOFF     PRECIP       ET          HEAD       DEPTH      WIDTH   CONDCTNC.   GRADIENT

   1    1    1     1     1    2.3624E+01  2.3872E-01   2.3386E+01  0.000E+00  0.000E+00  0.000E+00  1.09421E+03  1.157E+00  1.276E+01  5.742E-02  1.386E+00
   1    2    2     1     2    2.3386E+01  3.6908E-01   2.3016E+01  0.000E+00  0.000E+00  0.000E+00  1.08921E+03  1.153E+00  1.270E+01  8.888E-02  1.384E+00
   1    3    3     1     3    2.3016E+01  3.1417E-01   2.2702E+01  0.000E+00  0.000E+00  0.000E+00  1.08357E+03  1.147E+00  1.263E+01  7.575E-02  1.382E+00
   1    3    4     1     4    2.2702E+01  2.8881E-01   2.2414E+01  0.000E+00  0.000E+00  0.000E+00  1.07855E+03  1.143E+00  1.256E+01  6.972E-02  1.381E+00
   1    4    5     2     1    2.0414E+01  3.1702E-01   2.0096E+01  0.000E+00  0.000E+00  0.000E+00  1.07300E+03  1.064E+00  1.200E+01  7.800E-02  1.355E+00
   1    5    6     2     2    2.0096E+01  2.4333E-01   1.9853E+01  0.000E+00  0.000E+00  0.000E+00  1.06756E+03  1.055E+00  1.200E+01  6.000E-02  1.352E+00
   1    6    6     2     3    1.9853E+01  2.4286E-01   1.9610E+01  0.000E+00  0.000E+00  0.000E+00  1.06284E+03  1.048E+00  1.200E+01  6.000E-02  1.349E+00
   1    7    6     2     4    1.9610E+01  2.4240E-01   1.9368E+01  0.000E+00  0.000E+00  0.000E+00  1.05812E+03  1.040E+00  1.200E+01  6.000E-02  1.347E+00
   1    8    6     2     5    1.9368E+01  2.4193E-01   1.9126E+01  0.000E+00  0.000E+00  0.000E+00  1.05339E+03  1.032E+00  1.200E+01  6.000E-02  1.344E+00
   1    3    5     3     1    2.0000E+00  2.8252E-01   1.7175E+00  0.000E+00  0.000E+00  0.000E+00  1.07555E+03  1.909E+00  9.636E+00  7.227E-02  1.955E+00
   1    3    6     3     2    1.7175E+00  2.4905E-01   1.4684E+00  0.000E+00  0.000E+00  0.000E+00  1.07264E+03  1.727E+00  8.909E+00  6.682E-02  1.864E+00
   1    3    7     3     3    1.4684E+00  1.9718E-01   1.2712E+00  0.000E+00  0.000E+00  0.000E+00  1.06987E+03  1.555E+00  8.218E+00  5.547E-02  1.777E+00
   1    4    8     3     4    1.2712E+00  2.2567E-01   1.0456E+00  0.000E+00  0.000E+00  0.000E+00  1.06682E+03  1.364E+00  7.455E+00  6.709E-02  1.682E+00
   1    5    8     3     5    1.0456E+00  1.5790E-01   8.8768E-01  0.000E+00  0.000E+00  0.000E+00  1.06362E+03  1.164E+00  6.655E+00  4.991E-02  1.582E+00
   1    6    8     3     6    8.8768E-01  5.5980E-02   8.3170E-01  0.000E+00  0.000E+00  0.000E+00  1.06158E+03  1.036E+00  6.145E+00  1.844E-02  1.518E+00
   1    5   10     4     1    1.0000E+01  9.0919E-02   9.9091E+00  0.000E+00  0.000E+00  0.000E+00  1.07836E+03  6.368E-01  1.000E+01  2.500E-02  1.212E+00
   1    5    9     4     2    9.9091E+00  1.8158E-01   9.7275E+00  0.000E+00  0.000E+00  0.000E+00  1.07154E+03  6.315E-01  1.000E+01  5.000E-02  1.211E+00
   1    6    8     4     3    9.7275E+00  1.2689E-01   9.6006E+00  0.000E+00  0.000E+00  0.000E+00  1.06381E+03  6.256E-01  1.000E+01  3.500E-02  1.209E+00
   1    6    8     5     1    1.0432E+01  2.2686E-01   1.0205E+01  0.000E+00  0.000E+00  0.000E+00  1.05868E+03  6.790E-01  1.542E+01  6.166E-02  1.226E+00
   1    7    7     5     2    1.0205E+01  2.7894E-01   9.9265E+00  0.000E+00  0.000E+00  0.000E+00  1.05417E+03  6.732E-01  1.519E+01  7.594E-02  1.224E+00
   1    8    7     5     3    9.9265E+00  1.9221E-01   9.7343E+00  0.000E+00  0.000E+00  0.000E+00  1.04992E+03  6.676E-01  1.497E+01  5.241E-02  1.223E+00
   1    8    6     5     4    9.7343E+00  1.3577E-01   9.5985E+00  0.000E+00  0.000E+00  0.000E+00  1.04691E+03  6.637E-01  1.482E+01  3.706E-02  1.221E+00
   1    9    6     6     1    2.8725E+01  2.5941E-01   2.8465E+01  0.000E+00  0.000E+00  0.000E+00  1.04405E+03  1.324E+00  1.200E+01  6.000E-02  1.441E+00
   1   10    7     6     2    2.8465E+01  2.5898E-01   2.8206E+01  0.000E+00  0.000E+00  0.000E+00  1.03950E+03  1.316E+00  1.200E+01  6.000E-02  1.439E+00
   1   11    7     6     3    2.8206E+01  2.5855E-01   2.7948E+01  0.000E+00  0.000E+00  0.000E+00  1.03495E+03  1.309E+00  1.200E+01  6.000E-02  1.436E+00
   1   12    7     6     4    2.7948E+01  2.5811E-01   2.7689E+01  0.000E+00  0.000E+00  0.000E+00  1.03039E+03  1.302E+00  1.200E+01  6.000E-02  1.434E+00
   1   13    7     6     5    2.7689E+01  1.7655E-02   2.7672E+01  0.000E+00  0.000E+00  0.000E+00  1.02721E+03  1.298E+00  1.200E+01  2.400E-02  2.452E-01
   1   14    9     7     1    1.5000E+02  1.4009E+00   1.4860E+02  0.000E+00  0.000E+00  0.000E+00  1.03987E+03  2.288E+00  5.529E+01  5.593E-01  8.349E-01
   1   13    8     7     2    1.4860E+02  2.0353E+00   1.4656E+02  0.000E+00  0.000E+00  0.000E+00  1.03478E+03  2.278E+00  5.525E+01  6.147E-01  1.104E+00
   1   13    7     7     3    1.4656E+02  1.7957E+00   1.4477E+02  0.000E+00  0.000E+00  0.000E+00  1.02969E+03  2.268E+00  5.521E+01  5.583E-01  1.072E+00
   1   13    6     8     1    1.7244E+02  1.2390E+00   1.7120E+02  0.000E+00  0.000E+00  0.000E+00  1.02484E+03  2.964E+00  4.298E+01  4.380E-01  9.430E-01
   1   13    5     8     2    1.7120E+02  4.5254E-01   1.7075E+02  0.000E+00  0.000E+00  0.000E+00  1.01858E+03  2.959E+00  4.290E+01  4.372E-01  3.451E-01
   1   13    4     8     3    1.7075E+02 -1.4398E+00   1.7219E+02  0.000E+00  0.000E+00  0.000E+00  1.01234E+03  2.962E+00  4.295E+01  4.376E+00 -1.097E-01
   1   13    3     8     4    1.7219E+02 -3.1008E+00   1.7529E+02  0.000E+00  0.000E+00  0.000E+00  1.00610E+03  2.976E+00  4.316E+01  4.398E+00 -2.350E-01
   1   13    2     8     5    1.7529E+02 -2.3400E+00   1.7763E+02  0.000E+00  0.000E+00  0.000E+00  9.99869E+02  2.994E+00  4.341E+01  4.424E+00 -1.763E-01
   1   13    1     8     6    1.7763E+02 -1.9004E+00   1.7953E+02  0.000E+00  0.000E+00  0.000E+00  9.94882E+02  3.007E+00  4.360E+01  2.666E+00 -2.376E-01
   1    8    6     9     1    6.6396E-07  0.0000E+00   6.6396E-07  0.000E+00  0.000E+00  0.000E+00  1.07875E+03  8.769E-05  4.000E+00  0.000E+00  1.000E+00
   1    8    5     9     2    6.6396E-07  0.0000E+00   6.6396E-07  0.000E+00  0.000E+00  0.000E+00  1.07825E+03  8.769E-05  4.000E+00  0.000E+00  1.000E+00





UNSATURATED ZONE PACKAGE VOLUMETRIC BUDGET FOR  TIME STEP    30 STRESS PERIOD   42
  ------------------------------------------------------------------------------



     CUMULATIVE VOLUMES      L**3       RATES FOR THIS TIME STEP      L**3/T
     ------------------                 ------------------------

           IN:                                      IN:
           ---                                      ---
        INFILTRATION =  1577445675.9694          INFILTRATION =           0.8475

          OUT:                                     OUT:
          ----                                     ----
              UZF ET =  1315408551.0051                UZF ET =           8.3175
        UZF RECHARGE =    65927686.2255          UZF RECHARGE =           0.1700

            IN - OUT =   196109438.7388              IN - OUT =          -7.6400

          STORAGE:                                 STORAGE:
          --------                                 --------
      STORAGE CHANGE =   196110789.0869        STORAGE CHANGE =          -7.6399

 PERCENT DISCREPANCY IS DIFFERENCE BETWEEN IN-OUT MINUS CHANGE IN STORAGE
 DIVIDED BY THE AVERAGE OF IN AND OUT TIMES 100

 PERCENT DISCREPANCY =          -0.00     PERCENT DISCREPANCY =          -0.00






1
  VOLUMETRIC BUDGET FOR AGRICULTURAL FIELDS AT  END OF TIME STEP   30, STRESS PERIOD  42
  ------------------------------------------------------------------------------

     CUMULATIVE VOLUMES      L**3       RATES FOR THIS TIME STEP      L**3/T
     ------------------                 ------------------------

           IN:                                      IN:
           ---                                      ---
               AG WELLS  =   964111616.0000                 AG WELLS  =       2.2132E-07
      DIVERSION SEGMENTS =   521873600.0000        DIVERSION SEGMENTS =       6.6396E-07
           GW IRRIGATION =           0.0000             GW IRRIGATION =           0.0000
           SW IRRIGATION =           0.0000             SW IRRIGATION =           0.0000
        SYSTEM LOSSES GW =           0.0000          SYSTEM LOSSES GW =           0.0000
        SYSTEM LOSSES SW =           0.0000          SYSTEM LOSSES SW =           0.0000

                TOTAL IN =  1485985280.0000                  TOTAL IN =       8.8528E-07

          OUT:                                     OUT:
          ----                                     ----
               AG WELLS  =           0.0000                 AG WELLS  =           0.0000
      DIVERSION SEGMENTS =           0.0000        DIVERSION SEGMENTS =           0.0000
           GW IRRIGATION =   964111616.0000             GW IRRIGATION =       2.2132E-07
           SW IRRIGATION =   521883456.0000             SW IRRIGATION =       6.6397E-07
        SYSTEM LOSSES GW =           0.0000          SYSTEM LOSSES GW =           0.0000
        SYSTEM LOSSES SW =           0.0000          SYSTEM LOSSES SW =           0.0000

               TOTAL OUT =  1485995008.0000                 TOTAL OUT =       8.8529E-07

                IN - OUT =       -9728.0000                  IN - OUT =      -1.3188E-11

     PERCENT DISCREPANCY =          -0.00         PERCENT DISCREPANCY =          -0.00



1
  VOLUMETRIC BUDGET FOR ENTIRE MODEL AT END OF TIME STEP   30, STRESS PERIOD  42
  ------------------------------------------------------------------------------

     CUMULATIVE VOLUMES      L**3       RATES FOR THIS TIME STEP      L**3/T
     ------------------                 ------------------------

           IN:                                      IN:
           ---                                      ---
             STORAGE     =  1462604800.0000               STORAGE     =           1.3447
       CONSTANT HEAD     =           0.0000         CONSTANT HEAD     =           0.0000
     HEAD DEP BOUNDS     =    31148642.0000       HEAD DEP BOUNDS     =           0.2902
      STREAM LEAKAGE     =  1294965504.0000        STREAM LEAKAGE     =          12.8759
        UZF RECHARGE     =    65927680.0000          UZF RECHARGE     =           0.1700
               GW ET     =           0.0000                 GW ET     =           0.0000
     SURFACE LEAKAGE     =           0.0000       SURFACE LEAKAGE     =           0.0000
           AG WELLS      =           0.0000             AG WELLS      =           0.0000

                TOTAL IN =  2854646784.0000                  TOTAL IN =          14.6807

          OUT:                                     OUT:
          ----                                     ----
             STORAGE     =   797707840.0000               STORAGE     =           5.6119
       CONSTANT HEAD     =           0.0000         CONSTANT HEAD     =           0.0000
     HEAD DEP BOUNDS     =    31079642.0000       HEAD DEP BOUNDS     =           0.2886
      STREAM LEAKAGE     =  1061766400.0000        STREAM LEAKAGE     =           8.7810
        UZF RECHARGE     =           0.0000          UZF RECHARGE     =           0.0000
               GW ET     =           0.0000                 GW ET     =           0.0000
     SURFACE LEAKAGE     =           0.0000       SURFACE LEAKAGE     =           0.0000
           AG WELLS      =   964111616.0000             AG WELLS      =       2.2132E-07

               TOTAL OUT =  2854665472.0000                 TOTAL OUT =          14.6815

                IN - OUT =      -18688.0000                  IN - OUT =      -7.6962E-04

     PERCENT DISCREPANCY =          -0.00         PERCENT DISCREPANCY =          -0.01






         TIME SUMMARY AT END OF TIME STEP   30 IN STRESS PERIOD   42
                    SECONDS     MINUTES      HOURS       DAYS        YEARS
                    -----------------------------------------------------------
   TIME STEP LENGTH  87667.      1461.1      24.352      1.0147     2.77799E-03
 STRESS PERIOD TIME 2.63000E+06  43833.      730.56      30.440     8.33397E-02
         TOTAL TIME 1.07916E+08 1.79859E+06  29977.      1249.0      3.4196    
1
1
                            STRESS PERIOD NO.   43, LENGTH =   2630000.    
                            -----------------------------------------------

                              NUMBER OF TIME STEPS =    30

                               MULTIPLIER FOR DELT =     1.000

                            INITIAL TIME STEP SIZE =   87666.66    

 REUSING NON-PARAMETER GHB CELLS FROM LAST STRESS PERIOD

      2 GHB CELLS

 REUSING STREAM SEGMENT DATA FROM LAST STRESS PERIOD



            AREAL INFILTRATION RATE
 READING ON UNIT   19 WITH FORMAT: (FREE)              

            1           2           3           4           5           6           7           8           9          10
 ........................................................................................................................
   1   1.0000E-10  2.0000E-10   0.000       0.000       0.000       0.000       0.000       0.000       0.000       0.000    
   2   2.0000E-10  1.0000E-10  2.0000E-10   0.000       0.000      8.0000E-10  8.0000E-10  5.0000E-10   0.000       0.000    
   3    0.000      5.0000E-10  1.0000E-10  1.0000E-10  8.0000E-10  8.0000E-10  5.0000E-10  5.0000E-10   0.000       0.000    
   4   8.0000E-10  5.0000E-10  1.0000E-10  1.0000E-10  1.0000E-10  1.0000E-10  1.0000E-10  1.0000E-10  2.0000E-10   0.000    
   5   8.0000E-10  5.0000E-10  1.0000E-10  1.0000E-10  1.0000E-10  1.0000E-10  1.0000E-10  1.0000E-10  1.0000E-10  1.0000E-10
   6   8.0000E-10  5.0000E-10  5.0000E-10  2.0000E-10  2.0000E-10  1.0000E-10  1.0000E-10  1.0000E-10  1.0000E-10  5.0000E-10
   7   8.0000E-10  5.0000E-10  5.0000E-10  2.0000E-10  2.0000E-10  1.0000E-10  1.0000E-10  2.0000E-10  2.0000E-10   0.000    
   8    0.000      5.0000E-10  5.0000E-10  2.0000E-10  2.0000E-10  1.0000E-10  1.0000E-10  2.0000E-10  5.0000E-10   0.000    
   9    0.000      5.0000E-10  5.0000E-10  2.0000E-10  2.0000E-10  1.0000E-10  1.0000E-10  2.0000E-10  5.0000E-10   0.000    
  10    0.000      5.0000E-10  5.0000E-10  2.0000E-10  2.0000E-10  1.0000E-10  1.0000E-10  2.0000E-10  5.0000E-10  8.0000E-10
  11    0.000      1.0000E-10  1.0000E-10  1.0000E-10  1.0000E-10  1.0000E-10  1.0000E-10  2.0000E-10  5.0000E-10   0.000    
  12   1.0000E-10  1.0000E-10  1.0000E-10  1.0000E-10  1.0000E-10  1.0000E-10  1.0000E-10  1.0000E-10  2.0000E-10   0.000    
  13   1.0000E-10  1.0000E-10  2.0000E-10  2.0000E-10  2.0000E-10  2.0000E-10  2.0000E-10  1.0000E-10  1.0000E-10   0.000    
  14    0.000      2.0000E-10  5.0000E-10  5.0000E-10  5.0000E-10  5.0000E-10  5.0000E-10  2.0000E-10  1.0000E-10   0.000    
  15    0.000       0.000      8.0000E-10  8.0000E-10  8.0000E-10  8.0000E-10   0.000       0.000       0.000       0.000    

                  ET RATE =  1.500000E-07

 USING ET EXTINCTION DEPTH FROM PREVIOUS STRESS PERIOD. CURRENT PERIOD IS:      43

 USING EXTINCTION WATER CONTENT FROM PREVIOUS STRESS PERIOD. CURRENT PERIOD IS:      43

 USING AIR ENTRY PRESSURE FROM PREVIOUS STRESS PERIOD. CURRENT PERIOD IS:      43

 USING ROOT PRESSURE HEAD FROM PREVIOUS STRESS PERIOD. CURRENT PERIOD IS:      43

 USING ROOT ACTIVITY FROM PREVIOUS STRESS PERIOD. CURRENT PERIOD IS:      43

 PROCESSING AG STRESS PERIOD DATA

 READING AG STRESS PERIOD DATA

 READING IRRIGATION SEGMENT

 READING IRRIGATION WELL

 READING SUPPLEMENTAL WELL

 END PROCESSING AG STRESS PERIOD DATA OPTIONS
 
 SOLVING FOR HEAD 
                                                   Max.-Head-Change                         Max.-Flux-Residual
  Residual-Control   Outer-Iter.   Inner-Iter.     Column Row Layer    Maximum-Head-Change  Column Row Layer    Maximum-Flux-Residual          L2-NORM 
          0                 1           2             3    7     1       0.4879416464E-02       4    7    1         0.2086478879E+00      0.8819797636E+00
          0                 2           2             4    7     1      -0.8012267503E-01       5    8    1        -0.4303907228E+01      0.1057092472E+02
          0                 3           2             5    7     1       0.4921238764E-02       5    8    1         0.2760359241E+00      0.6734229232E+00
          0                 4           2             5    7     1      -0.1958208461E-03       5    8    1        -0.1128993887E-01      0.2753329840E-01
          0                 5           1             5    7     1       0.2414559205E-05       5    8    1         0.1430782313E-03      0.3486334677E-03

    ------------------------------------------------
       NWT REQUIRED            5 OUTER ITERATIONS 
       AND A TOTAL OF          9 INNER ITERATIONS.
    ------------------------------------------------

 NO OUTPUT CONTROL FOR STRESS PERIOD   43   TIME STEP    1
 
 SOLVING FOR HEAD 
                                                   Max.-Head-Change                         Max.-Flux-Residual
  Residual-Control   Outer-Iter.   Inner-Iter.     Column Row Layer    Maximum-Head-Change  Column Row Layer    Maximum-Flux-Residual          L2-NORM 
          0                 1           2             5    8     1       0.5626755698E-02       5    8    1         0.2993489277E+00      0.9209401849E+00
          0                 2           2             5    8     1      -0.5473310412E-03       5    8    1        -0.2993497294E-01      0.9197072347E-01
          0                 3           1             5    8     1       0.3727120234E-04       5    8    1         0.2095448254E-02      0.6427435147E-02

    ------------------------------------------------
       NWT REQUIRED            3 OUTER ITERATIONS 
       AND A TOTAL OF          5 INNER ITERATIONS.
    ------------------------------------------------

 NO OUTPUT CONTROL FOR STRESS PERIOD   43   TIME STEP    2
 
 SOLVING FOR HEAD 
                                                   Max.-Head-Change                         Max.-Flux-Residual
  Residual-Control   Outer-Iter.   Inner-Iter.     Column Row Layer    Maximum-Head-Change  Column Row Layer    Maximum-Flux-Residual          L2-NORM 
          0                 1           2             5    8     1       0.5501907173E-02       5    8    1         0.2923998660E+00      0.9121523989E+00
          0                 2           2             4    7     1      -0.8616691826E-01       5    8    1        -0.4633194376E+01      0.1136550093E+02
          0                 3           2             4    7     1       0.5867490789E-02       5    6    1         0.3243121447E+00      0.7953123727E+00
          0                 4           2             4    7     1      -0.2334735093E-03       5    6    1        -0.1326439533E-01      0.3252158755E-01
          0                 5           1             4    7     1       0.2878828663E-05       5    6    1         0.1681007575E-03      0.4119486624E-03

    ------------------------------------------------
       NWT REQUIRED            5 OUTER ITERATIONS 
       AND A TOTAL OF          9 INNER ITERATIONS.
    ------------------------------------------------

 NO OUTPUT CONTROL FOR STRESS PERIOD   43   TIME STEP    3
 
 SOLVING FOR HEAD 
                                                   Max.-Head-Change                         Max.-Flux-Residual
  Residual-Control   Outer-Iter.   Inner-Iter.     Column Row Layer    Maximum-Head-Change  Column Row Layer    Maximum-Flux-Residual          L2-NORM 
          0                 1           2             5    8     1       0.7791352489E-02       5    8    1         0.4183773981E+00      0.1043924218E+01
          0                 2           2             5    8     1      -0.7578887427E-03       5    8    1        -0.4183792210E-01      0.1042582702E+00
          0                 3           1             5    8     1       0.5160938686E-04       5    8    1         0.2928654082E-02      0.7285971236E-02

    ------------------------------------------------
       NWT REQUIRED            3 OUTER ITERATIONS 
       AND A TOTAL OF          5 INNER ITERATIONS.
    ------------------------------------------------

 NO OUTPUT CONTROL FOR STRESS PERIOD   43   TIME STEP    4
 
 SOLVING FOR HEAD 
                                                   Max.-Head-Change                         Max.-Flux-Residual
  Residual-Control   Outer-Iter.   Inner-Iter.     Column Row Layer    Maximum-Head-Change  Column Row Layer    Maximum-Flux-Residual          L2-NORM 
          0                 1           2             5    8     1       0.7549158362E-02       5    8    1         0.4048814931E+00      0.1026463611E+01
          0                 2           2             4    7     1      -0.8622347403E-01       5    8    1        -0.4644442632E+01      0.1138464107E+02
          0                 3           2             4    7     1       0.5870772068E-02       5    8    1         0.3250951872E+00      0.7956973900E+00
          0                 4           2             4    7     1      -0.2336040796E-03       5    8    1        -0.1329648556E-01      0.3253722104E-01
          0                 5           1             4    7     1       0.2880438989E-05       5    8    1         0.1685073264E-03      0.4121218664E-03

    ------------------------------------------------
       NWT REQUIRED            5 OUTER ITERATIONS 
       AND A TOTAL OF          9 INNER ITERATIONS.
    ------------------------------------------------

 NO OUTPUT CONTROL FOR STRESS PERIOD   43   TIME STEP    5
 
 SOLVING FOR HEAD 
                                                   Max.-Head-Change                         Max.-Flux-Residual
  Residual-Control   Outer-Iter.   Inner-Iter.     Column Row Layer    Maximum-Head-Change  Column Row Layer    Maximum-Flux-Residual          L2-NORM 
          0                 1           2             5    8     1       0.9729081036E-02       5    8    1         0.5247512636E+00      0.1196565899E+01
          0                 2           2             5    8     1      -0.9463785151E-03       5    8    1        -0.5247542211E-01      0.1195196403E+00
          0                 3           1             5    8     1       0.6444482569E-04       5    8    1         0.3673278334E-02      0.8354062289E-02

    ------------------------------------------------
       NWT REQUIRED            3 OUTER ITERATIONS 
       AND A TOTAL OF          5 INNER ITERATIONS.
    ------------------------------------------------

 NO OUTPUT CONTROL FOR STRESS PERIOD   43   TIME STEP    6
 
 SOLVING FOR HEAD 
                                                   Max.-Head-Change                         Max.-Flux-Residual
  Residual-Control   Outer-Iter.   Inner-Iter.     Column Row Layer    Maximum-Head-Change  Column Row Layer    Maximum-Flux-Residual          L2-NORM 
          0                 1           2             5    8     1       0.9384971585E-02       5    8    1         0.5055768223E+00      0.1169235029E+01
          0                 2           2             4    7     1      -0.8628507838E-01       5    8    1        -0.4654512267E+01      0.1140234017E+02
          0                 3           2             4    7     1       0.5873411492E-02       5    8    1         0.3257999725E+00      0.7979041248E+00
          0                 4           2             4    7     1      -0.2337087494E-03       5    8    1        -0.1332531175E-01      0.3262756429E-01
          0                 5           1             4    7     1       0.2881729736E-05       5    8    1         0.1688726438E-03      0.4132983337E-03

    ------------------------------------------------
       NWT REQUIRED            5 OUTER ITERATIONS 
       AND A TOTAL OF          9 INNER ITERATIONS.
    ------------------------------------------------

 NO OUTPUT CONTROL FOR STRESS PERIOD   43   TIME STEP    7
 
 SOLVING FOR HEAD 
                                                   Max.-Head-Change                         Max.-Flux-Residual
  Residual-Control   Outer-Iter.   Inner-Iter.     Column Row Layer    Maximum-Head-Change  Column Row Layer    Maximum-Flux-Residual          L2-NORM 
          0                 1           2             5    8     1       0.1146946249E-01       5    8    1         0.6201321101E+00      0.1358697881E+01
          0                 2           2             5    8     1      -0.1115671989E-02       5    8    1        -0.6201362529E-01      0.1357388294E+00
          0                 3           1             5    8     1       0.7597306680E-04       5    8    1         0.4340951724E-02      0.9489374166E-02

    ------------------------------------------------
       NWT REQUIRED            3 OUTER ITERATIONS 
       AND A TOTAL OF          5 INNER ITERATIONS.
    ------------------------------------------------

 NO OUTPUT CONTROL FOR STRESS PERIOD   43   TIME STEP    8
 
 SOLVING FOR HEAD 
                                                   Max.-Head-Change                         Max.-Flux-Residual
  Residual-Control   Outer-Iter.   Inner-Iter.     Column Row Layer    Maximum-Head-Change  Column Row Layer    Maximum-Flux-Residual          L2-NORM 
          0                 1           2             5    8     1       0.1103654450E-01       5    8    1         0.5960164798E+00      0.1321944349E+01
          0                 2           2             4    7     1      -0.8634965873E-01       5    8    1        -0.4663556340E+01      0.1141892074E+02
          0                 3           2             4    7     1       0.5837235448E-02       5    8    1         0.3263752647E+00      0.7980497628E+00
          0                 4           2             4    7     1      -0.2322692500E-03       5    8    1        -0.1334323796E-01      0.3263226585E-01
          0                 5           1             4    7     1       0.2863980201E-05       5    6    1         0.1687314459E-03      0.4147993264E-03

    ------------------------------------------------
       NWT REQUIRED            5 OUTER ITERATIONS 
       AND A TOTAL OF          9 INNER ITERATIONS.
    ------------------------------------------------

 NO OUTPUT CONTROL FOR STRESS PERIOD   43   TIME STEP    9
 
 SOLVING FOR HEAD 
                                                   Max.-Head-Change                         Max.-Flux-Residual
  Residual-Control   Outer-Iter.   Inner-Iter.     Column Row Layer    Maximum-Head-Change  Column Row Layer    Maximum-Flux-Residual          L2-NORM 
          0                 1           2             5    8     1       0.1303780299E-01       5    8    1         0.7059447322E+00      0.1519707107E+01
          0                 2           2             5    8     1      -0.1268230350E-02       5    8    1        -0.7059500694E-01      0.1518353045E+00
          0                 3           1             5    8     1       0.8636170930E-04       5    8    1         0.4941647582E-02      0.1061634888E-01

    ------------------------------------------------
       NWT REQUIRED            3 OUTER ITERATIONS 
       AND A TOTAL OF          5 INNER ITERATIONS.
    ------------------------------------------------

 NO OUTPUT CONTROL FOR STRESS PERIOD   43   TIME STEP   10
 
 SOLVING FOR HEAD 
                                                   Max.-Head-Change                         Max.-Flux-Residual
  Residual-Control   Outer-Iter.   Inner-Iter.     Column Row Layer    Maximum-Head-Change  Column Row Layer    Maximum-Flux-Residual          L2-NORM 
          0                 1           2             5    8     1       0.1252718590E-01       5    8    1         0.6775125734E+00      0.1474373030E+01
          0                 2           2             4    7     1      -0.8646033632E-01       5    8    1        -0.4671706057E+01      0.1143435395E+02
          0                 3           2             4    7     1       0.5887584097E-02       5    8    1         0.3269487800E+00      0.8002053906E+00
          0                 4           2             4    7     1      -0.2342726893E-03       5    8    1        -0.1336699602E-01      0.3271965090E-01
          0                 5           1             4    7     1       0.2888683841E-05       5    6    1         0.1690496972E-03      0.4157111273E-03

    ------------------------------------------------
       NWT REQUIRED            5 OUTER ITERATIONS 
       AND A TOTAL OF          9 INNER ITERATIONS.
    ------------------------------------------------

 NO OUTPUT CONTROL FOR STRESS PERIOD   43   TIME STEP   11
 
 SOLVING FOR HEAD 
                                                   Max.-Head-Change                         Max.-Flux-Residual
  Residual-Control   Outer-Iter.   Inner-Iter.     Column Row Layer    Maximum-Head-Change  Column Row Layer    Maximum-Flux-Residual          L2-NORM 
          0                 1           2             5    8     1       0.1445552162E-01       5    8    1         0.7833915625E+00      0.1675335028E+01
          0                 2           2             5    8     1      -0.1406137399E-02       5    8    1        -0.7833980741E-01      0.1673998609E+00
          0                 3           1             5    8     1       0.9575265148E-04       5    8    1         0.5483782719E-02      0.1170571846E-01

    ------------------------------------------------
       NWT REQUIRED            3 OUTER ITERATIONS 
       AND A TOTAL OF          5 INNER ITERATIONS.
    ------------------------------------------------

 NO OUTPUT CONTROL FOR STRESS PERIOD   43   TIME STEP   12
 
 SOLVING FOR HEAD 
                                                   Max.-Head-Change                         Max.-Flux-Residual
  Residual-Control   Outer-Iter.   Inner-Iter.     Column Row Layer    Maximum-Head-Change  Column Row Layer    Maximum-Flux-Residual          L2-NORM 
          0                 1           2             5    8     1       0.1387683906E-01       5    8    1         0.7511834733E+00      0.1622375769E+01
          0                 2           2             4    7     1      -0.8652650208E-01       5    8    1        -0.4679073253E+01      0.1144882587E+02
          0                 3           2             4    7     1       0.5891826621E-02       5    8    1         0.3274671433E+00      0.8007000015E+00
          0                 4           2             4    7     1      -0.2344415005E-03       5    8    1        -0.1338846169E-01      0.3273934776E-01
          0                 5           1             4    7     1       0.2890765076E-05       5    6    1         0.1693376628E-03      0.4158090966E-03

    ------------------------------------------------
       NWT REQUIRED            5 OUTER ITERATIONS 
       AND A TOTAL OF          9 INNER ITERATIONS.
    ------------------------------------------------

 NO OUTPUT CONTROL FOR STRESS PERIOD   43   TIME STEP   13
 
 SOLVING FOR HEAD 
                                                   Max.-Head-Change                         Max.-Flux-Residual
  Residual-Control   Outer-Iter.   Inner-Iter.     Column Row Layer    Maximum-Head-Change  Column Row Layer    Maximum-Flux-Residual          L2-NORM 
          0                 1           2             5    8     1       0.1574072559E-01       5    8    1         0.8534981871E+00      0.1823210071E+01
          0                 2           2             5    8     1      -0.1531154317E-02       5    8    1        -0.8535058381E-01      0.1821893735E+00
          0                 3           1             5    8     1       0.1042658246E-03       5    8    1         0.5974536211E-02      0.1274131168E-01
          0                 4           1             5    8     1      -0.4148834108E-05       5    8    1        -0.2443589053E-03      0.5203577696E-03

    ------------------------------------------------
       NWT REQUIRED            4 OUTER ITERATIONS 
       AND A TOTAL OF          6 INNER ITERATIONS.
    ------------------------------------------------

 NO OUTPUT CONTROL FOR STRESS PERIOD   43   TIME STEP   14
 
 SOLVING FOR HEAD 
                                                   Max.-Head-Change                         Max.-Flux-Residual
  Residual-Control   Outer-Iter.   Inner-Iter.     Column Row Layer    Maximum-Head-Change  Column Row Layer    Maximum-Flux-Residual          L2-NORM 
          0                 1           2             5    8     1       0.1510252657E-01       5    8    1         0.8179866838E+00      0.1763673858E+01
          0                 2           2             4    7     1      -0.8659514878E-01       5    8    1        -0.4685753676E+01      0.1146239291E+02
          0                 3           2             4    7     1       0.5896765949E-02       5    8    1         0.3279371146E+00      0.8021651626E+00
          0                 4           2             4    7     1      -0.2346380374E-03       5    8    1        -0.1340791483E-01      0.3279857708E-01
          0                 5           1             4    7     1       0.2893188517E-05       5    6    1         0.1695990611E-03      0.4164178502E-03

    ------------------------------------------------
       NWT REQUIRED            5 OUTER ITERATIONS 
       AND A TOTAL OF          9 INNER ITERATIONS.
    ------------------------------------------------

 NO OUTPUT CONTROL FOR STRESS PERIOD   43   TIME STEP   15
 
 SOLVING FOR HEAD 
                                                   Max.-Head-Change                         Max.-Flux-Residual
  Residual-Control   Outer-Iter.   Inner-Iter.     Column Row Layer    Maximum-Head-Change  Column Row Layer    Maximum-Flux-Residual          L2-NORM 
          0                 1           2             5    8     1       0.1690924604E-01       5    8    1         0.9171563068E+00      0.1962750246E+01
          0                 2           2             5    8     1      -0.1644821063E-02       5    8    1        -0.9171650531E-01      0.1961455102E+00
          0                 3           2             5    8     1       0.1120060942E-03       5    8    1         0.6420149869E-02      0.1371831001E-01
          0                 4           1             5    8     1      -0.4456827609E-05       5    8    1        -0.2625845273E-03      0.5602901166E-03

    ------------------------------------------------
       NWT REQUIRED            4 OUTER ITERATIONS 
       AND A TOTAL OF          7 INNER ITERATIONS.
    ------------------------------------------------

 NO OUTPUT CONTROL FOR STRESS PERIOD   43   TIME STEP   16
 
 SOLVING FOR HEAD 
                                                   Max.-Head-Change                         Max.-Flux-Residual
  Residual-Control   Outer-Iter.   Inner-Iter.     Column Row Layer    Maximum-Head-Change  Column Row Layer    Maximum-Flux-Residual          L2-NORM 
          0                 1           2             5    8     1       0.1621797667E-01       5    8    1         0.8787065793E+00      0.1897302337E+01
          0                 2           2             4    7     1      -0.8666431146E-01       5    8    1        -0.4691825764E+01      0.1147511106E+02
          0                 3           2             4    7     1       0.5901475835E-02       5    8    1         0.3283642146E+00      0.8030542195E+00
          0                 4           2             4    7     1      -0.2348254472E-03       5    8    1        -0.1342558726E-01      0.3283452402E-01
          0                 5           1             4    7     1       0.2895499495E-05       5    6    1         0.1698368876E-03      0.4167555487E-03

    ------------------------------------------------
       NWT REQUIRED            5 OUTER ITERATIONS 
       AND A TOTAL OF          9 INNER ITERATIONS.
    ------------------------------------------------

 NO OUTPUT CONTROL FOR STRESS PERIOD   43   TIME STEP   17
 
 SOLVING FOR HEAD 
                                                   Max.-Head-Change                         Max.-Flux-Residual
  Residual-Control   Outer-Iter.   Inner-Iter.     Column Row Layer    Maximum-Head-Change  Column Row Layer    Maximum-Flux-Residual          L2-NORM 
          0                 1           2             5    8     1       0.1797477706E-01       5    8    1         0.9751130070E+00      0.2094229878E+01
          0                 2           2             5    8     1      -0.1748469664E-02       5    8    1        -0.9751227904E-01      0.2092956599E+00
          0                 3           2             5    8     1       0.1190641656E-03       5    8    1         0.6825853238E-02      0.1463911917E-01
          0                 4           1             5    8     1      -0.4737675289E-05       5    8    1        -0.2791778390E-03      0.5981306607E-03

    ------------------------------------------------
       NWT REQUIRED            4 OUTER ITERATIONS 
       AND A TOTAL OF          7 INNER ITERATIONS.
    ------------------------------------------------

 NO OUTPUT CONTROL FOR STRESS PERIOD   43   TIME STEP   18
 
 SOLVING FOR HEAD 
                                                   Max.-Head-Change                         Max.-Flux-Residual
  Residual-Control   Outer-Iter.   Inner-Iter.     Column Row Layer    Maximum-Head-Change  Column Row Layer    Maximum-Flux-Residual          L2-NORM 
          0                 1           2             5    8     1       0.1723676479E-01       5    8    1         0.9340786943E+00      0.2023567126E+01
          0                 2           2             4    7     1      -0.8673417767E-01       5    8    1        -0.4697363069E+01      0.1148709555E+02
          0                 3           2             4    7     1       0.5906233586E-02       5    8    1         0.3287536347E+00      0.8038937841E+00
          0                 4           2             4    7     1      -0.2350147622E-03       5    8    1        -0.1344169426E-01      0.3286862273E-01
          0                 5           1             4    7     1       0.2897833773E-05       5    6    1         0.1700539012E-03      0.4170719953E-03

    ------------------------------------------------
       NWT REQUIRED            5 OUTER ITERATIONS 
       AND A TOTAL OF          9 INNER ITERATIONS.
    ------------------------------------------------

 NO OUTPUT CONTROL FOR STRESS PERIOD   43   TIME STEP   19
 
 SOLVING FOR HEAD 
                                                   Max.-Head-Change                         Max.-Flux-Residual
  Residual-Control   Outer-Iter.   Inner-Iter.     Column Row Layer    Maximum-Head-Change  Column Row Layer    Maximum-Flux-Residual          L2-NORM 
          0                 1           2             5    8     1       0.1894937952E-01       5    8    1         0.1028042777E+01      0.2217916741E+01
          0                 2           2             5    8     1      -0.1843273310E-02       5    8    1        -0.1028053537E+00      0.2216663191E+00
          0                 3           2             5    8     1       0.1255199285E-03       5    8    1         0.7196367692E-02      0.1550512753E-01
          0                 4           1             5    8     1      -0.4994556165E-05       5    8    1        -0.2943318987E-03      0.6334105996E-03

    ------------------------------------------------
       NWT REQUIRED            4 OUTER ITERATIONS 
       AND A TOTAL OF          7 INNER ITERATIONS.
    ------------------------------------------------

 NO OUTPUT CONTROL FOR STRESS PERIOD   43   TIME STEP   20
 
 SOLVING FOR HEAD 
                                                   Max.-Head-Change                         Max.-Flux-Residual
  Residual-Control   Outer-Iter.   Inner-Iter.     Column Row Layer    Maximum-Head-Change  Column Row Layer    Maximum-Flux-Residual          L2-NORM 
          0                 1           2             5    8     1       0.1816993974E-01       5    8    1         0.9847205451E+00      0.2142649859E+01
          0                 2           2             4    7     1      -0.8680432980E-01       5    8    1        -0.4702427342E+01      0.1149840492E+02
          0                 3           2             4    7     1       0.5911010769E-02       5    8    1         0.3291097299E+00      0.8046861978E+00
          0                 4           2             4    7     1      -0.2352048502E-03       5    8    1        -0.1345641716E-01      0.3290081676E-01
          0                 5           1             4    7     1       0.2900177571E-05       5    6    1         0.1702524487E-03      0.4173210314E-03

    ------------------------------------------------
       NWT REQUIRED            5 OUTER ITERATIONS 
       AND A TOTAL OF          9 INNER ITERATIONS.
    ------------------------------------------------

 NO OUTPUT CONTROL FOR STRESS PERIOD   43   TIME STEP   21
 
 SOLVING FOR HEAD 
                                                   Max.-Head-Change                         Max.-Flux-Residual
  Residual-Control   Outer-Iter.   Inner-Iter.     Column Row Layer    Maximum-Head-Change  Column Row Layer    Maximum-Flux-Residual          L2-NORM 
          0                 1           2             5    8     1       0.1984345874E-01       5    8    1         0.1076526258E+01      0.2334242063E+01
          0                 2           2             5    8     1      -0.1930244154E-02       5    8    1        -0.1076537935E+00      0.2333009139E+00
          0                 3           2             5    8     1       0.1314423079E-03       5    8    1         0.7535757756E-02      0.1631973615E-01
          0                 4           1             5    8     1      -0.5230213267E-05       5    8    1        -0.3082129874E-03      0.6684485388E-03

    ------------------------------------------------
       NWT REQUIRED            4 OUTER ITERATIONS 
       AND A TOTAL OF          7 INNER ITERATIONS.
    ------------------------------------------------

 NO OUTPUT CONTROL FOR STRESS PERIOD   43   TIME STEP   22
 
 SOLVING FOR HEAD 
                                                   Max.-Head-Change                         Max.-Flux-Residual
  Residual-Control   Outer-Iter.   Inner-Iter.     Column Row Layer    Maximum-Head-Change  Column Row Layer    Maximum-Flux-Residual          L2-NORM 
          0                 1           2             5    8     1       0.1902730712E-01       5    8    1         0.1031179479E+01      0.2254890903E+01
          0                 2           2             4    7     1      -0.8687438854E-01       5    8    1        -0.4707073318E+01      0.1150909105E+02
          0                 3           2             4    7     1       0.5915781558E-02       5    8    1         0.3294363579E+00      0.8054350134E+00
          0                 4           2             4    7     1      -0.2353946841E-03       5    8    1        -0.1346991637E-01      0.3293123789E-01
          0                 5           1             4    7     1       0.2902518345E-05       5    6    1         0.1704345307E-03      0.4176214704E-03

    ------------------------------------------------
       NWT REQUIRED            5 OUTER ITERATIONS 
       AND A TOTAL OF          9 INNER ITERATIONS.
    ------------------------------------------------

 NO OUTPUT CONTROL FOR STRESS PERIOD   43   TIME STEP   23
 
 SOLVING FOR HEAD 
                                                   Max.-Head-Change                         Max.-Flux-Residual
  Residual-Control   Outer-Iter.   Inner-Iter.     Column Row Layer    Maximum-Head-Change  Column Row Layer    Maximum-Flux-Residual          L2-NORM 
          0                 1           2             5    8     1       0.2066612354E-01       5    8    1         0.1121071806E+01      0.2443682576E+01
          0                 2           2             5    8     1      -0.2010268238E-02       5    8    1        -0.1121084340E+00      0.2442429156E+00
          0                 3           2             5    8     1       0.1368916388E-03       5    8    1         0.7847581912E-02      0.1708585682E-01
          0                 4           1             5    8     1      -0.5447046892E-05       5    8    1        -0.3209665902E-03      0.6993880033E-03

    ------------------------------------------------
       NWT REQUIRED            4 OUTER ITERATIONS 
       AND A TOTAL OF          7 INNER ITERATIONS.
    ------------------------------------------------

 NO OUTPUT CONTROL FOR STRESS PERIOD   43   TIME STEP   24
 
 SOLVING FOR HEAD 
                                                   Max.-Head-Change                         Max.-Flux-Residual
  Residual-Control   Outer-Iter.   Inner-Iter.     Column Row Layer    Maximum-Head-Change  Column Row Layer    Maximum-Flux-Residual          L2-NORM 
          0                 1           2             5    8     1       0.1981748418E-01       5    8    1         0.1073935618E+01      0.2360711292E+01
          0                 2           2             4    7     1      -0.8694404494E-01       5    8    1        -0.4711349009E+01      0.1151920256E+02
          0                 3           2             4    7     1       0.5920524921E-02       5    8    1         0.3297369025E+00      0.8061437510E+00
          0                 4           2             4    7     1      -0.2355834268E-03       5    8    1        -0.1348233253E-01      0.3296014195E-01
          0                 5           1             4    7     1       0.2904845677E-05       5    6    1         0.1706020121E-03      0.4179299268E-03

    ------------------------------------------------
       NWT REQUIRED            5 OUTER ITERATIONS 
       AND A TOTAL OF          9 INNER ITERATIONS.
    ------------------------------------------------

 NO OUTPUT CONTROL FOR STRESS PERIOD   43   TIME STEP   25
 
 SOLVING FOR HEAD 
                                                   Max.-Head-Change                         Max.-Flux-Residual
  Residual-Control   Outer-Iter.   Inner-Iter.     Column Row Layer    Maximum-Head-Change  Column Row Layer    Maximum-Flux-Residual          L2-NORM 
          0                 1           2             5    8     1       0.2142525902E-01       5    8    1         0.1162118336E+01      0.2546736279E+01
          0                 2           2             5    8     1      -0.2084112570E-02       5    8    1        -0.1162131670E+00      0.2545543736E+00
          0                 3           2             5    8     1       0.1419201530E-03       5    8    1         0.8134912584E-02      0.1780802715E-01
          0                 4           1             5    8     1      -0.5647136705E-05       5    8    1        -0.3327184550E-03      0.7276688369E-03

    ------------------------------------------------
       NWT REQUIRED            4 OUTER ITERATIONS 
       AND A TOTAL OF          7 INNER ITERATIONS.
    ------------------------------------------------

 NO OUTPUT CONTROL FOR STRESS PERIOD   43   TIME STEP   26
 
 SOLVING FOR HEAD 
                                                   Max.-Head-Change                         Max.-Flux-Residual
  Residual-Control   Outer-Iter.   Inner-Iter.     Column Row Layer    Maximum-Head-Change  Column Row Layer    Maximum-Flux-Residual          L2-NORM 
          0                 1           2             5    8     1       0.2054767762E-01       5    8    1         0.1113389967E+01      0.2460546421E+01
          0                 2           2             4    7     1      -0.8701305475E-01       5    8    1        -0.4715294516E+01      0.1152878343E+02
          0                 3           2             4    7     1       0.5925228971E-02       5    8    1         0.3309694926E+00      0.8072075936E+00
          0                 4           2             4    7     1      -0.2357706046E-03       5    8    1        -0.1353292655E-01      0.3300342595E-01
          0                 5           1             4    7     1       0.2907153407E-05       5    8    1         0.1712489177E-03      0.4183855344E-03

    ------------------------------------------------
       NWT REQUIRED            5 OUTER ITERATIONS 
       AND A TOTAL OF          9 INNER ITERATIONS.
    ------------------------------------------------

 NO OUTPUT CONTROL FOR STRESS PERIOD   43   TIME STEP   27
 
 SOLVING FOR HEAD 
                                                   Max.-Head-Change                         Max.-Flux-Residual
  Residual-Control   Outer-Iter.   Inner-Iter.     Column Row Layer    Maximum-Head-Change  Column Row Layer    Maximum-Flux-Residual          L2-NORM 
          0                 1           2             5    8     1       0.2211185621E-01       5    8    1         0.1200631219E+01      0.2644204936E+01
          0                 2           2             5    6     1      -0.2142902691E-02       5    6    1        -0.1192940477E+00      0.2637460342E+00
          0                 3           2             5    6     1       0.1459237370E-03       5    6    1         0.8350587435E-02      0.1845167613E-01
          0                 4           1             5    6     1      -0.5806432203E-05       5    6    1        -0.3415395090E-03      0.7540436394E-03

    ------------------------------------------------
       NWT REQUIRED            4 OUTER ITERATIONS 
       AND A TOTAL OF          7 INNER ITERATIONS.
    ------------------------------------------------

 NO OUTPUT CONTROL FOR STRESS PERIOD   43   TIME STEP   28
 
 SOLVING FOR HEAD 
                                                   Max.-Head-Change                         Max.-Flux-Residual
  Residual-Control   Outer-Iter.   Inner-Iter.     Column Row Layer    Maximum-Head-Change  Column Row Layer    Maximum-Flux-Residual          L2-NORM 
          0                 1           2             5    8     1       0.2122350642E-01       5    8    1         0.1149854854E+01      0.2554788251E+01
          0                 2           2             4    7     1      -0.8708117814E-01       5    8    1        -0.4718941072E+01      0.1153786954E+02
          0                 3           2             4    7     1       0.5929881289E-02       5    8    1         0.3329830553E+00      0.8085759207E+00
          0                 4           2             4    7     1      -0.2359557097E-03       5    8    1        -0.1361616485E-01      0.3306008012E-01
          0                 5           1             4    7     1       0.2909435709E-05       5    8    1         0.1723637452E-03      0.4191333165E-03

    ------------------------------------------------
       NWT REQUIRED            5 OUTER ITERATIONS 
       AND A TOTAL OF          9 INNER ITERATIONS.
    ------------------------------------------------

 NO OUTPUT CONTROL FOR STRESS PERIOD   43   TIME STEP   29
 
 SOLVING FOR HEAD 
                                                   Max.-Head-Change                         Max.-Flux-Residual
  Residual-Control   Outer-Iter.   Inner-Iter.     Column Row Layer    Maximum-Head-Change  Column Row Layer    Maximum-Flux-Residual          L2-NORM 
          0                 1           2             5    8     1       0.2279125475E-01       5    8    1         0.1237372458E+01      0.2736798616E+01
          0                 2           2             5    8     1      -0.2216966578E-02       5    8    1        -0.1237371732E+00      0.2735630991E+00
          0                 3           2             5    8     1       0.1509672134E-03       5    8    1         0.8661606549E-02      0.1913897176E-01
          0                 4           1             5    8     1      -0.6007126896E-05       5    8    1        -0.3542602053E-03      0.7821227320E-03

    ------------------------------------------------
       NWT REQUIRED            4 OUTER ITERATIONS 
       AND A TOTAL OF          7 INNER ITERATIONS.
    ------------------------------------------------

 NO OUTPUT CONTROL FOR STRESS PERIOD   43   TIME STEP   30



 STREAM LISTING     PERIOD     43   STEP       30

 LAYER ROW COL. STREAM  RCH.  FLOW INTO     FLOW TO   FLOW OUT OF   OVRLND.     DIRECT     STREAM       STREAM     STREAM     STREAM   STREAMBED  STREAMBED
                SEG.NO.  NO.  STRM. RCH.    AQUIFER    STRM. RCH.    RUNOFF     PRECIP       ET          HEAD       DEPTH      WIDTH   CONDCTNC.   GRADIENT

   1    1    1     1     1    2.1749E+01  2.2965E-01   2.1520E+01  0.000E+00  0.000E+00  0.000E+00  1.09418E+03  1.128E+00  1.236E+01  5.564E-02  1.376E+00
   1    2    2     1     2    2.1520E+01  3.5497E-01   2.1165E+01  0.000E+00  0.000E+00  0.000E+00  1.08918E+03  1.123E+00  1.230E+01  8.610E-02  1.374E+00
   1    3    3     1     3    2.1165E+01  3.0207E-01   2.0863E+01  0.000E+00  0.000E+00  0.000E+00  1.08354E+03  1.117E+00  1.223E+01  7.337E-02  1.372E+00
   1    3    4     1     4    2.0863E+01  2.7761E-01   2.0585E+01  0.000E+00  0.000E+00  0.000E+00  1.07852E+03  1.112E+00  1.216E+01  6.751E-02  1.371E+00
   1    4    5     2     1    1.8585E+01  3.1244E-01   1.8273E+01  0.000E+00  0.000E+00  0.000E+00  1.07294E+03  1.006E+00  1.200E+01  7.800E-02  1.335E+00
   1    5    6     2     2    1.8273E+01  2.3979E-01   1.8033E+01  0.000E+00  0.000E+00  0.000E+00  1.06751E+03  9.966E-01  1.200E+01  6.000E-02  1.332E+00
   1    6    6     2     3    1.8033E+01  2.3932E-01   1.7793E+01  0.000E+00  0.000E+00  0.000E+00  1.06278E+03  9.887E-01  1.200E+01  6.000E-02  1.330E+00
   1    7    6     2     4    1.7793E+01  2.3884E-01   1.7555E+01  0.000E+00  0.000E+00  0.000E+00  1.05806E+03  9.807E-01  1.200E+01  6.000E-02  1.327E+00
   1    8    6     2     5    1.7555E+01  2.3837E-01   1.7316E+01  0.000E+00  0.000E+00  0.000E+00  1.05333E+03  9.728E-01  1.200E+01  6.000E-02  1.324E+00
   1    3    5     3     1    2.0000E+00  2.8252E-01   1.7175E+00  0.000E+00  0.000E+00  0.000E+00  1.07555E+03  1.909E+00  9.636E+00  7.227E-02  1.955E+00
   1    3    6     3     2    1.7175E+00  2.4905E-01   1.4684E+00  0.000E+00  0.000E+00  0.000E+00  1.07264E+03  1.727E+00  8.909E+00  6.682E-02  1.864E+00
   1    3    7     3     3    1.4684E+00  1.9718E-01   1.2712E+00  0.000E+00  0.000E+00  0.000E+00  1.06987E+03  1.555E+00  8.218E+00  5.547E-02  1.777E+00
   1    4    8     3     4    1.2712E+00  2.2567E-01   1.0456E+00  0.000E+00  0.000E+00  0.000E+00  1.06682E+03  1.364E+00  7.455E+00  6.709E-02  1.682E+00
   1    5    8     3     5    1.0456E+00  1.5790E-01   8.8768E-01  0.000E+00  0.000E+00  0.000E+00  1.06362E+03  1.164E+00  6.655E+00  4.991E-02  1.582E+00
   1    6    8     3     6    8.8768E-01  5.5980E-02   8.3170E-01  0.000E+00  0.000E+00  0.000E+00  1.06158E+03  1.036E+00  6.145E+00  1.844E-02  1.518E+00
   1    5   10     4     1    1.0000E+01  9.0919E-02   9.9091E+00  0.000E+00  0.000E+00  0.000E+00  1.07836E+03  6.368E-01  1.000E+01  2.500E-02  1.212E+00
   1    5    9     4     2    9.9091E+00  1.8158E-01   9.7275E+00  0.000E+00  0.000E+00  0.000E+00  1.07154E+03  6.315E-01  1.000E+01  5.000E-02  1.211E+00
   1    6    8     4     3    9.7275E+00  1.2689E-01   9.6006E+00  0.000E+00  0.000E+00  0.000E+00  1.06381E+03  6.256E-01  1.000E+01  3.500E-02  1.209E+00
   1    6    8     5     1    1.0432E+01  2.2686E-01   1.0205E+01  0.000E+00  0.000E+00  0.000E+00  1.05868E+03  6.790E-01  1.542E+01  6.166E-02  1.226E+00
   1    7    7     5     2    1.0205E+01  2.7894E-01   9.9265E+00  0.000E+00  0.000E+00  0.000E+00  1.05417E+03  6.732E-01  1.519E+01  7.594E-02  1.224E+00
   1    8    7     5     3    9.9265E+00  1.9221E-01   9.7343E+00  0.000E+00  0.000E+00  0.000E+00  1.04992E+03  6.676E-01  1.497E+01  5.241E-02  1.223E+00
   1    8    6     5     4    9.7343E+00  1.3577E-01   9.5985E+00  0.000E+00  0.000E+00  0.000E+00  1.04691E+03  6.637E-01  1.482E+01  3.706E-02  1.221E+00
   1    9    6     6     1    2.6915E+01  2.5636E-01   2.6658E+01  0.000E+00  0.000E+00  0.000E+00  1.04400E+03  1.273E+00  1.200E+01  6.000E-02  1.424E+00
   1   10    7     6     2    2.6658E+01  2.5592E-01   2.6403E+01  0.000E+00  0.000E+00  0.000E+00  1.03945E+03  1.265E+00  1.200E+01  6.000E-02  1.422E+00
   1   11    7     6     3    2.6403E+01  2.5548E-01   2.6147E+01  0.000E+00  0.000E+00  0.000E+00  1.03489E+03  1.258E+00  1.200E+01  6.000E-02  1.419E+00
   1   12    7     6     4    2.6147E+01  2.5504E-01   2.5892E+01  0.000E+00  0.000E+00  0.000E+00  1.03034E+03  1.251E+00  1.200E+01  6.000E-02  1.417E+00
   1   13    7     6     5    2.5892E+01  1.6601E-02   2.5875E+01  0.000E+00  0.000E+00  0.000E+00  1.02716E+03  1.247E+00  1.200E+01  2.400E-02  2.306E-01
   1   14    9     7     1    1.5000E+02  1.4022E+00   1.4860E+02  0.000E+00  0.000E+00  0.000E+00  1.03987E+03  2.288E+00  5.529E+01  5.593E-01  8.357E-01
   1   13    8     7     2    1.4860E+02  2.0379E+00   1.4656E+02  0.000E+00  0.000E+00  0.000E+00  1.03478E+03  2.278E+00  5.525E+01  6.147E-01  1.105E+00
   1   13    7     7     3    1.4656E+02  1.7997E+00   1.4476E+02  0.000E+00  0.000E+00  0.000E+00  1.02969E+03  2.268E+00  5.521E+01  5.583E-01  1.074E+00
   1   13    6     8     1    1.7064E+02  1.2351E+00   1.6940E+02  0.000E+00  0.000E+00  0.000E+00  1.02483E+03  2.952E+00  4.281E+01  4.362E-01  9.437E-01
   1   13    5     8     2    1.6940E+02  4.5130E-01   1.6895E+02  0.000E+00  0.000E+00  0.000E+00  1.01857E+03  2.947E+00  4.273E+01  4.354E-01  3.455E-01
   1   13    4     8     3    1.6895E+02 -1.4184E+00   1.7037E+02  0.000E+00  0.000E+00  0.000E+00  1.01232E+03  2.950E+00  4.277E+01  4.359E+00 -1.085E-01
   1   13    3     8     4    1.7037E+02 -3.0722E+00   1.7344E+02  0.000E+00  0.000E+00  0.000E+00  1.00609E+03  2.965E+00  4.299E+01  4.380E+00 -2.338E-01
   1   13    2     8     5    1.7344E+02 -2.3019E+00   1.7574E+02  0.000E+00  0.000E+00  0.000E+00  9.99857E+02  2.982E+00  4.324E+01  4.406E+00 -1.741E-01
   1   13    1     8     6    1.7574E+02 -1.8697E+00   1.7761E+02  0.000E+00  0.000E+00  0.000E+00  9.94870E+02  2.995E+00  4.343E+01  2.655E+00 -2.347E-01
   1    8    6     9     1    0.0000E+00  0.0000E+00   0.0000E+00  0.000E+00  0.000E+00  0.000E+00  1.07875E+03  0.000E+00  4.000E+00  0.000E+00  1.000E+00
   1    8    5     9     2    0.0000E+00  0.0000E+00   0.0000E+00  0.000E+00  0.000E+00  0.000E+00  1.07825E+03  0.000E+00  4.000E+00  0.000E+00  1.000E+00





UNSATURATED ZONE PACKAGE VOLUMETRIC BUDGET FOR  TIME STEP    30 STRESS PERIOD   43
  ------------------------------------------------------------------------------



     CUMULATIVE VOLUMES      L**3       RATES FOR THIS TIME STEP      L**3/T
     ------------------                 ------------------------

           IN:                                      IN:
           ---                                      ---
        INFILTRATION =  1638769883.3439          INFILTRATION =           0.8475

          OUT:                                     OUT:
          ----                                     ----
              UZF ET =  1377009329.3190                UZF ET =          23.5092
        UZF RECHARGE =    65927686.2255          UZF RECHARGE =       0.0000E+00

            IN - OUT =   195832867.7995              IN - OUT =         -22.6617

          STORAGE:                                 STORAGE:
          --------                                 --------
      STORAGE CHANGE =   195834530.4756        STORAGE CHANGE =         -22.6616

 PERCENT DISCREPANCY IS DIFFERENCE BETWEEN IN-OUT MINUS CHANGE IN STORAGE
 DIVIDED BY THE AVERAGE OF IN AND OUT TIMES 100

 PERCENT DISCREPANCY =          -0.00     PERCENT DISCREPANCY =          -0.00






1
  VOLUMETRIC BUDGET FOR AGRICULTURAL FIELDS AT  END OF TIME STEP   30, STRESS PERIOD  43
  ------------------------------------------------------------------------------

     CUMULATIVE VOLUMES      L**3       RATES FOR THIS TIME STEP      L**3/T
     ------------------                 ------------------------

           IN:                                      IN:
           ---                                      ---
               AG WELLS  =  1000282944.0000                 AG WELLS  =           0.0000
      DIVERSION SEGMENTS =   544797312.0000        DIVERSION SEGMENTS =           0.0000
           GW IRRIGATION =           0.0000             GW IRRIGATION =           0.0000
           SW IRRIGATION =           0.0000             SW IRRIGATION =           0.0000
        SYSTEM LOSSES GW =           0.0000          SYSTEM LOSSES GW =           0.0000
        SYSTEM LOSSES SW =           0.0000          SYSTEM LOSSES SW =           0.0000

                TOTAL IN =  1545080320.0000                  TOTAL IN =           0.0000

          OUT:                                     OUT:
          ----                                     ----
               AG WELLS  =           0.0000                 AG WELLS  =           0.0000
      DIVERSION SEGMENTS =           0.0000        DIVERSION SEGMENTS =           0.0000
           GW IRRIGATION =  1000282944.0000             GW IRRIGATION =           0.0000
           SW IRRIGATION =   544807488.0000             SW IRRIGATION =           0.0000
        SYSTEM LOSSES GW =           0.0000          SYSTEM LOSSES GW =           0.0000
        SYSTEM LOSSES SW =           0.0000          SYSTEM LOSSES SW =           0.0000

               TOTAL OUT =  1545090432.0000                 TOTAL OUT =           0.0000

                IN - OUT =      -10112.0000                  IN - OUT =           0.0000

     PERCENT DISCREPANCY =          -0.00         PERCENT DISCREPANCY =           0.00



1
  VOLUMETRIC BUDGET FOR ENTIRE MODEL AT END OF TIME STEP   30, STRESS PERIOD  43
  ------------------------------------------------------------------------------

     CUMULATIVE VOLUMES      L**3       RATES FOR THIS TIME STEP      L**3/T
     ------------------                 ------------------------

           IN:                                      IN:
           ---                                      ---
             STORAGE     =  1501123072.0000               STORAGE     =           3.5851
       CONSTANT HEAD     =           0.0000         CONSTANT HEAD     =           0.0000
     HEAD DEP BOUNDS     =    31911964.0000       HEAD DEP BOUNDS     =           0.2903
      STREAM LEAKAGE     =  1328194304.0000        STREAM LEAKAGE     =          12.8002
        UZF RECHARGE     =    65927680.0000          UZF RECHARGE     =           0.0000
               GW ET     =           0.0000                 GW ET     =           0.0000
     SURFACE LEAKAGE     =           0.0000       SURFACE LEAKAGE     =           0.0000
           AG WELLS      =           0.0000             AG WELLS      =           0.0000

                TOTAL IN =  2927156992.0000                  TOTAL IN =          16.6755

          OUT:                                     OUT:
          ----                                     ----
             STORAGE     =   808593024.0000               STORAGE     =           7.7256
       CONSTANT HEAD     =           0.0000         CONSTANT HEAD     =           0.0000
     HEAD DEP BOUNDS     =    31837304.0000       HEAD DEP BOUNDS     =           0.2878
      STREAM LEAKAGE     =  1086463744.0000        STREAM LEAKAGE     =           8.6621
        UZF RECHARGE     =           0.0000          UZF RECHARGE     =           0.0000
               GW ET     =           0.0000                 GW ET     =           0.0000
     SURFACE LEAKAGE     =           0.0000       SURFACE LEAKAGE     =           0.0000
           AG WELLS      =  1000282944.0000             AG WELLS      =           0.0000

               TOTAL OUT =  2927176960.0000                 TOTAL OUT =          16.6755

                IN - OUT =      -19968.0000                  IN - OUT =       2.0981E-05

     PERCENT DISCREPANCY =          -0.00         PERCENT DISCREPANCY =           0.00






         TIME SUMMARY AT END OF TIME STEP   30 IN STRESS PERIOD   43
                    SECONDS     MINUTES      HOURS       DAYS        YEARS
                    -----------------------------------------------------------
   TIME STEP LENGTH  87667.      1461.1      24.352      1.0147     2.77799E-03
 STRESS PERIOD TIME 2.63000E+06  43833.      730.56      30.440     8.33397E-02
         TOTAL TIME 1.10545E+08 1.84242E+06  30707.      1279.5      3.5030    
1
1
                            STRESS PERIOD NO.   44, LENGTH =   2630000.    
                            -----------------------------------------------

                              NUMBER OF TIME STEPS =    30

                               MULTIPLIER FOR DELT =     1.000

                            INITIAL TIME STEP SIZE =   87666.66    

 REUSING NON-PARAMETER GHB CELLS FROM LAST STRESS PERIOD

      2 GHB CELLS

 REUSING STREAM SEGMENT DATA FROM LAST STRESS PERIOD



            AREAL INFILTRATION RATE
 READING ON UNIT   19 WITH FORMAT: (FREE)              

            1           2           3           4           5           6           7           8           9          10
 ........................................................................................................................
   1   1.0000E-10  2.0000E-10   0.000       0.000       0.000       0.000       0.000       0.000       0.000       0.000    
   2   2.0000E-10  1.0000E-10  2.0000E-10   0.000       0.000      8.0000E-10  8.0000E-10  5.0000E-10   0.000       0.000    
   3    0.000      5.0000E-10  1.0000E-10  1.0000E-10  8.0000E-10  8.0000E-10  5.0000E-10  5.0000E-10   0.000       0.000    
   4   8.0000E-10  5.0000E-10  1.0000E-10  1.0000E-10  1.0000E-10  1.0000E-10  1.0000E-10  1.0000E-10  2.0000E-10   0.000    
   5   8.0000E-10  5.0000E-10  1.0000E-10  1.0000E-10  1.0000E-10  1.0000E-10  1.0000E-10  1.0000E-10  1.0000E-10  1.0000E-10
   6   8.0000E-10  5.0000E-10  5.0000E-10  2.0000E-10  2.0000E-10  1.0000E-10  1.0000E-10  1.0000E-10  1.0000E-10  5.0000E-10
   7   8.0000E-10  5.0000E-10  5.0000E-10  2.0000E-10  2.0000E-10  1.0000E-10  1.0000E-10  2.0000E-10  2.0000E-10   0.000    
   8    0.000      5.0000E-10  5.0000E-10  2.0000E-10  2.0000E-10  1.0000E-10  1.0000E-10  2.0000E-10  5.0000E-10   0.000    
   9    0.000      5.0000E-10  5.0000E-10  2.0000E-10  2.0000E-10  1.0000E-10  1.0000E-10  2.0000E-10  5.0000E-10   0.000    
  10    0.000      5.0000E-10  5.0000E-10  2.0000E-10  2.0000E-10  1.0000E-10  1.0000E-10  2.0000E-10  5.0000E-10  8.0000E-10
  11    0.000      1.0000E-10  1.0000E-10  1.0000E-10  1.0000E-10  1.0000E-10  1.0000E-10  2.0000E-10  5.0000E-10   0.000    
  12   1.0000E-10  1.0000E-10  1.0000E-10  1.0000E-10  1.0000E-10  1.0000E-10  1.0000E-10  1.0000E-10  2.0000E-10   0.000    
  13   1.0000E-10  1.0000E-10  2.0000E-10  2.0000E-10  2.0000E-10  2.0000E-10  2.0000E-10  1.0000E-10  1.0000E-10   0.000    
  14    0.000      2.0000E-10  5.0000E-10  5.0000E-10  5.0000E-10  5.0000E-10  5.0000E-10  2.0000E-10  1.0000E-10   0.000    
  15    0.000       0.000      8.0000E-10  8.0000E-10  8.0000E-10  8.0000E-10   0.000       0.000       0.000       0.000    

                  ET RATE =  4.000000E-07

 USING ET EXTINCTION DEPTH FROM PREVIOUS STRESS PERIOD. CURRENT PERIOD IS:      44

 USING EXTINCTION WATER CONTENT FROM PREVIOUS STRESS PERIOD. CURRENT PERIOD IS:      44

 USING AIR ENTRY PRESSURE FROM PREVIOUS STRESS PERIOD. CURRENT PERIOD IS:      44

 USING ROOT PRESSURE HEAD FROM PREVIOUS STRESS PERIOD. CURRENT PERIOD IS:      44

 USING ROOT ACTIVITY FROM PREVIOUS STRESS PERIOD. CURRENT PERIOD IS:      44

 PROCESSING AG STRESS PERIOD DATA

 READING AG STRESS PERIOD DATA

 READING IRRIGATION SEGMENT

 READING IRRIGATION WELL

 READING SUPPLEMENTAL WELL

 END PROCESSING AG STRESS PERIOD DATA OPTIONS
 
 SOLVING FOR HEAD 
                                                   Max.-Head-Change                         Max.-Flux-Residual
  Residual-Control   Outer-Iter.   Inner-Iter.     Column Row Layer    Maximum-Head-Change  Column Row Layer    Maximum-Flux-Residual          L2-NORM 
          0                 1           2             5    8     1       0.2183784290E-01       5    8    1         0.1184365333E+01      0.2644278607E+01
          0                 2           2             4    7     1      -0.3200472317E+00       5    6    1        -0.1722188574E+02      0.4214775639E+02
          0                 3           2             4    7     1       0.2179358182E-01       5    8    1         0.1223067778E+01      0.2957286641E+01
          0                 4           2             4    7     1      -0.8671897123E-03       5    8    1        -0.5001091706E-01      0.1209422020E+00
          0                 5           1             4    7     1       0.1069282074E-04       5    8    1         0.6329244090E-03      0.1536457048E-02

    ------------------------------------------------
       NWT REQUIRED            5 OUTER ITERATIONS 
       AND A TOTAL OF          9 INNER ITERATIONS.
    ------------------------------------------------

 NO OUTPUT CONTROL FOR STRESS PERIOD   44   TIME STEP    1
 
 SOLVING FOR HEAD 
                                                   Max.-Head-Change                         Max.-Flux-Residual
  Residual-Control   Outer-Iter.   Inner-Iter.     Column Row Layer    Maximum-Head-Change  Column Row Layer    Maximum-Flux-Residual          L2-NORM 
          0                 1           2             5    8     1       0.3014155060E-01       5    8    1         0.1642157006E+01      0.3551198221E+01
          0                 2           2             4    7     1      -0.1359188953E+00       5    8    1        -0.7376258685E+01      0.1799904145E+02
          0                 3           2             4    7     1       0.9255478521E-02       5    8    1         0.5162748916E+00      0.1259747913E+01
          0                 4           2             4    7     1      -0.3682845998E-03       5    8    1        -0.2111003475E-01      0.5151257525E-01
          0                 5           1             4    7     1       0.4541107993E-05       5    8    1         0.2671446925E-03      0.6530852455E-03

    ------------------------------------------------
       NWT REQUIRED            5 OUTER ITERATIONS 
       AND A TOTAL OF          9 INNER ITERATIONS.
    ------------------------------------------------

 NO OUTPUT CONTROL FOR STRESS PERIOD   44   TIME STEP    2
 
 SOLVING FOR HEAD 
                                                   Max.-Head-Change                         Max.-Flux-Residual
  Residual-Control   Outer-Iter.   Inner-Iter.     Column Row Layer    Maximum-Head-Change  Column Row Layer    Maximum-Flux-Residual          L2-NORM 
          0                 1           2             5    8     1       0.3265735753E-01       5    8    1         0.1780253050E+01      0.3850443762E+01
          0                 2           2             4    7     1      -0.3198643251E+00       5    8    1        -0.1725773490E+02      0.4218518699E+02
          0                 3           2             4    7     1       0.2178102263E-01       5    8    1         0.1207823875E+01      0.2952588086E+01
          0                 4           2             4    7     1      -0.8666899176E-03       5    8    1        -0.4938174915E-01      0.1207469603E+00
          0                 5           1             4    7     1       0.1068665802E-04       5    6    1         0.6246364962E-03      0.1533424526E-02

    ------------------------------------------------
       NWT REQUIRED            5 OUTER ITERATIONS 
       AND A TOTAL OF          9 INNER ITERATIONS.
    ------------------------------------------------

 NO OUTPUT CONTROL FOR STRESS PERIOD   44   TIME STEP    3
 
 SOLVING FOR HEAD 
                                                   Max.-Head-Change                         Max.-Flux-Residual
  Residual-Control   Outer-Iter.   Inner-Iter.     Column Row Layer    Maximum-Head-Change  Column Row Layer    Maximum-Flux-Residual          L2-NORM 
          0                 1           2             5    8     1       0.4034646714E-01       5    8    1         0.2203680711E+01      0.4730694752E+01
          0                 2           2             4    7     1      -0.1362894140E+00       5    8    1        -0.7437211313E+01      0.1810452737E+02
          0                 3           2             4    7     1       0.9280713780E-02       5    8    1         0.5205648020E+00      0.1267164565E+01
          0                 4           2             4    7     1      -0.3692887124E-03       5    8    1        -0.2128774974E-01      0.5181724727E-01
          0                 5           1             4    7     1       0.4553489104E-05       5    8    1         0.2695501666E-03      0.6564869814E-03

    ------------------------------------------------
       NWT REQUIRED            5 OUTER ITERATIONS 
       AND A TOTAL OF          9 INNER ITERATIONS.
    ------------------------------------------------

 NO OUTPUT CONTROL FOR STRESS PERIOD   44   TIME STEP    4
 
 SOLVING FOR HEAD 
                                                   Max.-Head-Change                         Max.-Flux-Residual
  Residual-Control   Outer-Iter.   Inner-Iter.     Column Row Layer    Maximum-Head-Change  Column Row Layer    Maximum-Flux-Residual          L2-NORM 
          0                 1           2             5    8     1       0.4230614646E-01       5    8    1         0.2310693547E+01      0.4982122800E+01
          0                 2           2             4    7     1      -0.3201580834E+00       5    8    1        -0.1731076313E+02      0.4227521642E+02
          0                 3           2             4    7     1       0.2180103595E-01       5    8    1         0.1211557409E+01      0.2958897729E+01
          0                 4           2             4    7     1      -0.8674862186E-03       5    8    1        -0.4953654960E-01      0.1210025831E+00
          0                 5           1             4    7     1       0.1069647713E-04       5    8    1         0.6266700132E-03      0.1535547325E-02

    ------------------------------------------------
       NWT REQUIRED            5 OUTER ITERATIONS 
       AND A TOTAL OF          9 INNER ITERATIONS.
    ------------------------------------------------

 NO OUTPUT CONTROL FOR STRESS PERIOD   44   TIME STEP    5
 
 SOLVING FOR HEAD 
                                                   Max.-Head-Change                         Max.-Flux-Residual
  Residual-Control   Outer-Iter.   Inner-Iter.     Column Row Layer    Maximum-Head-Change  Column Row Layer    Maximum-Flux-Residual          L2-NORM 
          0                 1           2             5    8     1       0.4947456666E-01       5    8    1         0.2705076148E+01      0.5819768841E+01
          0                 2           2             4    7     1      -0.1402509520E+00       5    8    1        -0.7683664964E+01      0.1867065751E+02
          0                 3           2             4    7     1       0.9550478379E-02       5    8    1         0.5378338676E+00      0.1306843072E+01
          0                 4           2             4    7     1      -0.3800229048E-03       5    8    1        -0.2199576380E-01      0.5344384518E-01
          0                 5           1             4    7     1       0.4685846507E-05       5    8    1         0.2786388281E-03      0.6770958416E-03

    ------------------------------------------------
       NWT REQUIRED            5 OUTER ITERATIONS 
       AND A TOTAL OF          9 INNER ITERATIONS.
    ------------------------------------------------

 NO OUTPUT CONTROL FOR STRESS PERIOD   44   TIME STEP    6
 
 SOLVING FOR HEAD 
                                                   Max.-Head-Change                         Max.-Flux-Residual
  Residual-Control   Outer-Iter.   Inner-Iter.     Column Row Layer    Maximum-Head-Change  Column Row Layer    Maximum-Flux-Residual          L2-NORM 
          0                 1           2             5    8     1       0.5105505693E-01       5    8    1         0.2790866150E+01      0.6036707629E+01
          0                 2           2             4    7     1      -0.3249575429E+00       5    8    1        -0.1759938979E+02      0.4294856172E+02
          0                 3           2             4    7     1       0.2212785368E-01       5    8    1         0.1231776262E+01      0.3006044408E+01
          0                 4           2             4    7     1      -0.8804906367E-03       5    8    1        -0.5036503803E-01      0.1229298389E+00
          0                 5           1             4    7     1       0.1085682726E-04       5    8    1         0.6372736145E-03      0.1559210375E-02

    ------------------------------------------------
       NWT REQUIRED            5 OUTER ITERATIONS 
       AND A TOTAL OF          9 INNER ITERATIONS.
    ------------------------------------------------

 NO OUTPUT CONTROL FOR STRESS PERIOD   44   TIME STEP    7
 
 SOLVING FOR HEAD 
                                                   Max.-Head-Change                         Max.-Flux-Residual
  Residual-Control   Outer-Iter.   Inner-Iter.     Column Row Layer    Maximum-Head-Change  Column Row Layer    Maximum-Flux-Residual          L2-NORM 
          0                 1           2             5    8     1       0.5789575869E-01       5    8    1         0.3166854562E+01      0.6850192257E+01
          0                 2           2             5    7     1      -0.1414439383E+00       5    8    1        -0.7774142540E+01      0.1886282735E+02
          0                 3           2             5    7     1       0.9631717599E-02       5    8    1         0.5441827514E+00      0.1320321411E+01
          0                 4           2             5    7     1      -0.3832554831E-03       5    8    1        -0.2225693916E-01      0.5399741137E-01
          0                 5           1             5    7     1       0.4725712027E-05       5    8    1         0.2820509462E-03      0.6842058556E-03

    ------------------------------------------------
       NWT REQUIRED            5 OUTER ITERATIONS 
       AND A TOTAL OF          9 INNER ITERATIONS.
    ------------------------------------------------

 NO OUTPUT CONTROL FOR STRESS PERIOD   44   TIME STEP    8
 
 SOLVING FOR HEAD 
                                                   Max.-Head-Change                         Max.-Flux-Residual
  Residual-Control   Outer-Iter.   Inner-Iter.     Column Row Layer    Maximum-Head-Change  Column Row Layer    Maximum-Flux-Residual          L2-NORM 
          0                 1           2             5    8     1       0.5906640991E-01       5    8    1         0.3229778296E+01      0.7027527358E+01
          0                 2           2             4    7     1      -0.3252932549E+00       5    8    1        -0.1764328020E+02      0.4302961404E+02
          0                 3           2             4    7     1       0.2215072131E-01       5    8    1         0.1234865403E+01      0.3011735123E+01
          0                 4           2             4    7     1      -0.8814005253E-03       5    8    1        -0.5049301537E-01      0.1231622551E+00
          0                 5           1             4    7     1       0.1086804656E-04       5    8    1         0.6390062783E-03      0.1561542451E-02

    ------------------------------------------------
       NWT REQUIRED            5 OUTER ITERATIONS 
       AND A TOTAL OF          9 INNER ITERATIONS.
    ------------------------------------------------

 NO OUTPUT CONTROL FOR STRESS PERIOD   44   TIME STEP    9
 
 SOLVING FOR HEAD 
                                                   Max.-Head-Change                         Max.-Flux-Residual
  Residual-Control   Outer-Iter.   Inner-Iter.     Column Row Layer    Maximum-Head-Change  Column Row Layer    Maximum-Flux-Residual          L2-NORM 
          0                 1           2             5    8     1       0.6550136264E-01       5    8    1         0.3583164577E+01      0.7801444856E+01
          0                 2           2             5    7     1      -0.1419848660E+00       5    8    1        -0.7815772656E+01      0.1894200220E+02
          0                 3           2             5    7     1       0.9668554490E-02       5    8    1         0.5470988442E+00      0.1325864505E+01
          0                 4           2             5    7     1      -0.3847212490E-03       5    8    1        -0.2237639931E-01      0.5422416862E-01
          0                 5           1             5    7     1       0.4743785508E-05       5    8    1         0.2835779073E-03      0.6870502915E-03

    ------------------------------------------------
       NWT REQUIRED            5 OUTER ITERATIONS 
       AND A TOTAL OF          9 INNER ITERATIONS.
    ------------------------------------------------

 NO OUTPUT CONTROL FOR STRESS PERIOD   44   TIME STEP   10
 
 SOLVING FOR HEAD 
                                                   Max.-Head-Change                         Max.-Flux-Residual
  Residual-Control   Outer-Iter.   Inner-Iter.     Column Row Layer    Maximum-Head-Change  Column Row Layer    Maximum-Flux-Residual          L2-NORM 
          0                 1           2             5    8     1       0.6629312129E-01       5    8    1         0.3624998178E+01      0.7940500470E+01
          0                 2           2             4    7     1      -0.3256418274E+00       5    8    1        -0.1768280133E+02      0.4310567292E+02
          0                 3           2             4    7     1       0.2217446342E-01       5    8    1         0.1237646523E+01      0.3017078639E+01
          0                 4           2             4    7     1      -0.8823452168E-03       5    8    1        -0.5060818134E-01      0.1233811784E+00
          0                 5           1             4    7     1       0.1087969464E-04       5    8    1         0.6405621264E-03      0.1563887533E-02

    ------------------------------------------------
       NWT REQUIRED            5 OUTER ITERATIONS 
       AND A TOTAL OF          9 INNER ITERATIONS.
    ------------------------------------------------

 NO OUTPUT CONTROL FOR STRESS PERIOD   44   TIME STEP   11
 
 SOLVING FOR HEAD 
                                                   Max.-Head-Change                         Max.-Flux-Residual
  Residual-Control   Outer-Iter.   Inner-Iter.     Column Row Layer    Maximum-Head-Change  Column Row Layer    Maximum-Flux-Residual          L2-NORM 
          0                 1           2             5    8     1       0.7237411211E-01       5    8    1         0.3958694621E+01      0.8678299585E+01
          0                 2           2             5    6     1      -0.1425428216E+00       5    8    1        -0.7853324744E+01      0.1901637949E+02
          0                 3           2             5    6     1       0.9706553551E-02       5    8    1         0.5497275072E+00      0.1331070349E+01
          0                 4           2             5    6     1      -0.3862332466E-03       5    8    1        -0.2248391171E-01      0.5443705024E-01
          0                 5           1             5    6     1       0.4762415592E-05       5    8    1         0.2849404243E-03      0.6897512330E-03

    ------------------------------------------------
       NWT REQUIRED            5 OUTER ITERATIONS 
       AND A TOTAL OF          9 INNER ITERATIONS.
    ------------------------------------------------

 NO OUTPUT CONTROL FOR STRESS PERIOD   44   TIME STEP   12
 
 SOLVING FOR HEAD 
                                                   Max.-Head-Change                         Max.-Flux-Residual
  Residual-Control   Outer-Iter.   Inner-Iter.     Column Row Layer    Maximum-Head-Change  Column Row Layer    Maximum-Flux-Residual          L2-NORM 
          0                 1           2             5    8     1       0.7283492050E-01       5    8    1         0.3982132370E+01      0.8783299244E+01
          0                 2           2             4    7     1      -0.3259998197E+00       5    8    1        -0.1771851386E+02      0.4317715764E+02
          0                 3           2             4    7     1       0.2219884583E-01       5    8    1         0.1240159173E+01      0.3022103157E+01
          0                 4           2             4    7     1      -0.8833153932E-03       5    8    1        -0.5071218348E-01      0.1235875048E+00
          0                 5           1             4    7     1       0.1089165783E-04       5    8    1         0.6419640486E-03      0.1566213561E-02

    ------------------------------------------------
       NWT REQUIRED            5 OUTER ITERATIONS 
       AND A TOTAL OF          9 INNER ITERATIONS.
    ------------------------------------------------

 NO OUTPUT CONTROL FOR STRESS PERIOD   44   TIME STEP   13
 
 SOLVING FOR HEAD 
                                                   Max.-Head-Change                         Max.-Flux-Residual
  Residual-Control   Outer-Iter.   Inner-Iter.     Column Row Layer    Maximum-Head-Change  Column Row Layer    Maximum-Flux-Residual          L2-NORM 
          0                 1           2             5    8     1       0.7860618218E-01       5    8    1         0.4298623472E+01      0.9488385742E+01
          0                 2           2             5    6     1      -0.1431434358E+00       5    8    1        -0.7887316702E+01      0.1908634379E+02
          0                 3           2             5    6     1       0.9747453651E-02       5    8    1         0.5521069690E+00      0.1335967527E+01
          0                 4           2             5    6     1      -0.3878606973E-03       5    8    1        -0.2258123170E-01      0.5463733066E-01
          0                 5           1             5    6     1       0.4782482714E-05       5    8    1         0.2861737582E-03      0.6923357491E-03

    ------------------------------------------------
       NWT REQUIRED            5 OUTER ITERATIONS 
       AND A TOTAL OF          9 INNER ITERATIONS.
    ------------------------------------------------

 NO OUTPUT CONTROL FOR STRESS PERIOD   44   TIME STEP   14
 
 SOLVING FOR HEAD 
                                                   Max.-Head-Change                         Max.-Flux-Residual
  Residual-Control   Outer-Iter.   Inner-Iter.     Column Row Layer    Maximum-Head-Change  Column Row Layer    Maximum-Flux-Residual          L2-NORM 
          0                 1           2             5    8     1       0.7877734194E-01       5    8    1         0.4305983609E+01      0.9563115515E+01
          0                 2           2             4    7     1      -0.3263642251E+00       5    8    1        -0.1775089809E+02      0.4324444558E+02
          0                 3           2             4    7     1       0.2222366396E-01       5    8    1         0.1242437229E+01      0.3026834298E+01
          0                 4           2             4    7     1      -0.8843029106E-03       5    8    1        -0.5080643271E-01      0.1237821599E+00
          0                 5           1             4    7     1       0.1090383418E-04       5    8    1         0.6432316400E-03      0.1568504278E-02

    ------------------------------------------------
       NWT REQUIRED            5 OUTER ITERATIONS 
       AND A TOTAL OF          9 INNER ITERATIONS.
    ------------------------------------------------

 NO OUTPUT CONTROL FOR STRESS PERIOD   44   TIME STEP   15
 
 SOLVING FOR HEAD 
                                                   Max.-Head-Change                         Max.-Flux-Residual
  Residual-Control   Outer-Iter.   Inner-Iter.     Column Row Layer    Maximum-Head-Change  Column Row Layer    Maximum-Flux-Residual          L2-NORM 
          0                 1           2             5    8     1       0.8427688345E-01       5    8    1         0.4607401702E+01      0.1023864231E+02
          0                 2           2             5    6     1      -0.1436930346E+00       5    8    1        -0.7918193602E+01      0.1915224666E+02
          0                 3           2             5    6     1       0.9784879838E-02       5    8    1         0.5542683828E+00      0.1340580505E+01
          0                 4           2             5    6     1      -0.3893499179E-03       5    8    1        -0.2266963352E-01      0.5482594544E-01
          0                 5           1             5    6     1       0.4800845194E-05       5    8    1         0.2872941070E-03      0.6946877227E-03

    ------------------------------------------------
       NWT REQUIRED            5 OUTER ITERATIONS 
       AND A TOTAL OF          9 INNER ITERATIONS.
    ------------------------------------------------

 NO OUTPUT CONTROL FOR STRESS PERIOD   44   TIME STEP   16
 
 SOLVING FOR HEAD 
                                                   Max.-Head-Change                         Max.-Flux-Residual
  Residual-Control   Outer-Iter.   Inner-Iter.     Column Row Layer    Maximum-Head-Change  Column Row Layer    Maximum-Flux-Residual          L2-NORM 
          0                 1           2             5    8     1       0.8419343096E-01       5    8    1         0.4600648630E+01      0.1028641128E+02
          0                 2           2             4    7     1      -0.3267324678E+00       5    8    1        -0.1778036371E+02      0.4330787659E+02
          0                 3           2             4    7     1       0.2224874251E-01       5    8    1         0.1244509585E+01      0.3031295263E+01
          0                 4           2             4    7     1      -0.8853007956E-03       5    8    1        -0.5089213216E-01      0.1239659657E+00
          0                 5           1             4    7     1       0.1091613867E-04       5    8    1         0.6443815921E-03      0.1570767780E-02

    ------------------------------------------------
       NWT REQUIRED            5 OUTER ITERATIONS 
       AND A TOTAL OF          9 INNER ITERATIONS.
    ------------------------------------------------

 NO OUTPUT CONTROL FOR STRESS PERIOD   44   TIME STEP   17
 
 SOLVING FOR HEAD 
                                                   Max.-Head-Change                         Max.-Flux-Residual
  Residual-Control   Outer-Iter.   Inner-Iter.     Column Row Layer    Maximum-Head-Change  Column Row Layer    Maximum-Flux-Residual          L2-NORM 
          0                 1           2             5    8     1       0.8945407209E-01       5    8    1         0.4888832339E+01      0.1093522387E+02
          0                 2           2             5    6     1      -0.1441973617E+00       5    8    1        -0.7946335757E+01      0.1921440861E+02
          0                 3           2             5    6     1       0.9819223219E-02       5    8    1         0.5562383687E+00      0.1344931761E+01
          0                 4           2             5    6     1      -0.3907164703E-03       5    8    1        -0.2275020591E-01      0.5500390127E-01
          0                 5           1             5    6     1       0.4817695585E-05       5    8    1         0.2883151865E-03      0.6969658034E-03

    ------------------------------------------------
       NWT REQUIRED            5 OUTER ITERATIONS 
       AND A TOTAL OF          9 INNER ITERATIONS.
    ------------------------------------------------

 NO OUTPUT CONTROL FOR STRESS PERIOD   44   TIME STEP   18
 
 SOLVING FOR HEAD 
                                                   Max.-Head-Change                         Max.-Flux-Residual
  Residual-Control   Outer-Iter.   Inner-Iter.     Column Row Layer    Maximum-Head-Change  Column Row Layer    Maximum-Flux-Residual          L2-NORM 
          0                 1           2             5    8     1       0.8914642339E-01       5    8    1         0.4869669224E+01      0.1095894907E+02
          0                 2           2             4    7     1      -0.3271022910E+00       5    8    1        -0.1780726490E+02      0.4336775811E+02
          0                 3           2             4    7     1       0.2227392792E-01       5    8    1         0.1246401218E+01      0.3035506109E+01
          0                 4           2             4    7     1      -0.8863029375E-03       5    8    1        -0.5097032158E-01      0.1241395318E+00
          0                 5           1             4    7     1       0.1092849570E-04       5    8    1         0.6454283175E-03      0.1572871177E-02

    ------------------------------------------------
       NWT REQUIRED            5 OUTER ITERATIONS 
       AND A TOTAL OF          9 INNER ITERATIONS.
    ------------------------------------------------

 NO OUTPUT CONTROL FOR STRESS PERIOD   44   TIME STEP   19
 
 SOLVING FOR HEAD 
                                                   Max.-Head-Change                         Max.-Flux-Residual
  Residual-Control   Outer-Iter.   Inner-Iter.     Column Row Layer    Maximum-Head-Change  Column Row Layer    Maximum-Flux-Residual          L2-NORM 
          0                 1           2             5    8     1       0.9419631671E-01       5    8    1         0.5146194215E+01      0.1158358396E+02
          0                 2           2             5    6     1      -0.1446614481E+00       5    8    1        -0.7972071057E+01      0.1927312098E+02
          0                 3           2             5    6     1       0.9850826369E-02       5    8    1         0.5580398779E+00      0.1349041560E+01
          0                 4           2             5    6     1      -0.3919739863E-03       5    8    1        -0.2282388755E-01      0.5517197441E-01
          0                 5           1             5    6     1       0.4833201015E-05       5    8    1         0.2892489731E-03      0.6990737943E-03

    ------------------------------------------------
       NWT REQUIRED            5 OUTER ITERATIONS 
       AND A TOTAL OF          9 INNER ITERATIONS.
    ------------------------------------------------

 NO OUTPUT CONTROL FOR STRESS PERIOD   44   TIME STEP   20
 
 SOLVING FOR HEAD 
                                                   Max.-Head-Change                         Max.-Flux-Residual
  Residual-Control   Outer-Iter.   Inner-Iter.     Column Row Layer    Maximum-Head-Change  Column Row Layer    Maximum-Flux-Residual          L2-NORM 
          0                 1           2             5    8     1       0.9369073369E-01       5    8    1         0.5116090019E+01      0.1158580971E+02
          0                 2           2             4    7     1      -0.3274718134E+00       5    8    1        -0.1783190613E+02      0.4342436880E+02
          0                 3           2             4    7     1       0.2229909218E-01       5    8    1         0.1248133599E+01      0.3039486373E+01
          0                 4           2             4    7     1      -0.8873042412E-03       5    8    1        -0.5104189459E-01      0.1243036620E+00
          0                 5           1             4    7     1       0.1094084231E-04       5    8    1         0.6463842165E-03      0.1574933453E-02

    ------------------------------------------------
       NWT REQUIRED            5 OUTER ITERATIONS 
       AND A TOTAL OF          9 INNER ITERATIONS.
    ------------------------------------------------

 NO OUTPUT CONTROL FOR STRESS PERIOD   44   TIME STEP   21
 
 SOLVING FOR HEAD 
                                                   Max.-Head-Change                         Max.-Flux-Residual
  Residual-Control   Outer-Iter.   Inner-Iter.     Column Row Layer    Maximum-Head-Change  Column Row Layer    Maximum-Flux-Residual          L2-NORM 
          0                 1           2             5    8     1       0.9855407491E-01       5    8    1         0.5382308800E+01      0.1218849680E+02
          0                 2           2             5    6     1      -0.1450896332E+00       5    8    1        -0.7995681654E+01      0.1932863931E+02
          0                 3           2             5    6     1       0.9879984782E-02       5    8    1         0.5596926599E+00      0.1352927773E+01
          0                 4           2             5    6     1      -0.3931342241E-03       5    8    1        -0.2289148626E-01      0.5533094109E-01
          0                 5           1             5    6     1       0.4847507326E-05       5    8    1         0.2901056575E-03      0.7011101446E-03

    ------------------------------------------------
       NWT REQUIRED            5 OUTER ITERATIONS 
       AND A TOTAL OF          9 INNER ITERATIONS.
    ------------------------------------------------

 NO OUTPUT CONTROL FOR STRESS PERIOD   44   TIME STEP   22
 
 SOLVING FOR HEAD 
                                                   Max.-Head-Change                         Max.-Flux-Residual
  Residual-Control   Outer-Iter.   Inner-Iter.     Column Row Layer    Maximum-Head-Change  Column Row Layer    Maximum-Flux-Residual          L2-NORM 
          0                 1           2             5    8     1       0.9787315815E-01       5    8    1         0.5342526999E+01      0.1217158209E+02
          0                 2           2             4    7     1      -0.3278394202E+00       5    8    1        -0.1785454900E+02      0.4347795947E+02
          0                 3           2             4    7     1       0.2232412542E-01       5    8    1         0.1249725174E+01      0.3043253475E+01
          0                 4           2             4    7     1      -0.8883003341E-03       5    8    1        -0.5110761888E-01      0.1244589929E+00
          0                 5           1             4    7     1       0.1095312407E-04       5    8    1         0.6472598936E-03      0.1576912409E-02

    ------------------------------------------------
       NWT REQUIRED            5 OUTER ITERATIONS 
       AND A TOTAL OF          9 INNER ITERATIONS.
    ------------------------------------------------

 NO OUTPUT CONTROL FOR STRESS PERIOD   44   TIME STEP   23
 
 SOLVING FOR HEAD 
                                                   Max.-Head-Change                         Max.-Flux-Residual
  Residual-Control   Outer-Iter.   Inner-Iter.     Column Row Layer    Maximum-Head-Change  Column Row Layer    Maximum-Flux-Residual          L2-NORM 
          0                 1           2             5    8     1       0.1025710351E+00       5    8    1         0.5599618079E+01      0.1275448153E+02
          0                 2           2             5    6     1      -0.1454857783E+00       5    8    1        -0.8017411749E+01      0.1938123952E+02
          0                 3           2             5    6     1       0.9906961390E-02       5    8    1         0.5612138121E+00      0.1356609790E+01
          0                 4           2             5    6     1      -0.3942076456E-03       5    8    1        -0.2295370124E-01      0.5548151933E-01
          0                 5           1             5    6     1       0.4860743111E-05       5    8    1         0.2908941074E-03      0.7030396005E-03

    ------------------------------------------------
       NWT REQUIRED            5 OUTER ITERATIONS 
       AND A TOTAL OF          9 INNER ITERATIONS.
    ------------------------------------------------

 NO OUTPUT CONTROL FOR STRESS PERIOD   44   TIME STEP   24
 
 SOLVING FOR HEAD 
                                                   Max.-Head-Change                         Max.-Flux-Residual
  Residual-Control   Outer-Iter.   Inner-Iter.     Column Row Layer    Maximum-Head-Change  Column Row Layer    Maximum-Flux-Residual          L2-NORM 
          0                 1           2             5    8     1       0.1017351484E+00       5    8    1         0.5551264058E+01      0.1272021267E+02
          0                 2           2             4    7     1      -0.3282037201E+00       5    8    1        -0.1787542192E+02      0.4352875678E+02
          0                 3           2             4    7     1       0.2234893298E-01       5    8    1         0.1251192061E+01      0.3046823945E+01
          0                 4           2             4    7     1      -0.8892874499E-03       5    8    1        -0.5116816644E-01      0.1246062490E+00
          0                 5           1             4    7     1       0.1096529593E-04       5    8    1         0.6480647342E-03      0.1578803771E-02

    ------------------------------------------------
       NWT REQUIRED            5 OUTER ITERATIONS 
       AND A TOTAL OF          9 INNER ITERATIONS.
    ------------------------------------------------

 NO OUTPUT CONTROL FOR STRESS PERIOD   44   TIME STEP   25
 
 SOLVING FOR HEAD 
                                                   Max.-Head-Change                         Max.-Flux-Residual
  Residual-Control   Outer-Iter.   Inner-Iter.     Column Row Layer    Maximum-Head-Change  Column Row Layer    Maximum-Flux-Residual          L2-NORM 
          0                 1           2             5    8     1       0.1062869014E+00       5    8    1         0.5800282489E+01      0.1328472723E+02
          0                 2           2             5    6     1      -0.1458534186E+00       5    8    1        -0.8036633688E+01      0.1943108192E+02
          0                 3           2             5    6     1       0.9931996975E-02       5    8    1         0.5625593979E+00      0.1360098754E+01
          0                 4           2             5    6     1      -0.3952038318E-03       5    8    1        -0.2300873556E-01      0.5562422620E-01
          0                 5           1             5    6     1       0.4873026434E-05       5    8    1         0.2915915609E-03      0.7048256633E-03

    ------------------------------------------------
       NWT REQUIRED            5 OUTER ITERATIONS 
       AND A TOTAL OF          9 INNER ITERATIONS.
    ------------------------------------------------

 NO OUTPUT CONTROL FOR STRESS PERIOD   44   TIME STEP   26
 
 SOLVING FOR HEAD 
                                                   Max.-Head-Change                         Max.-Flux-Residual
  Residual-Control   Outer-Iter.   Inner-Iter.     Column Row Layer    Maximum-Head-Change  Column Row Layer    Maximum-Flux-Residual          L2-NORM 
          0                 1           2             5    8     1       0.1053410405E+00       5    8    1         0.5745103981E+01      0.1323487719E+02
          0                 2           2             4    7     1      -0.3285636041E+00       5    8    1        -0.1789480618E+02      0.4357696828E+02
          0                 3           2             4    7     1       0.2237343941E-01       5    8    1         0.1252553886E+01      0.3050211440E+01
          0                 4           2             4    7     1      -0.8902625848E-03       5    8    1        -0.5122433558E-01      0.1247458877E+00
          0                 5           1             4    7     1       0.1097731961E-04       5    8    1         0.6488085428E-03      0.1580604458E-02

    ------------------------------------------------
       NWT REQUIRED            5 OUTER ITERATIONS 
       AND A TOTAL OF          9 INNER ITERATIONS.
    ------------------------------------------------

 NO OUTPUT CONTROL FOR STRESS PERIOD   44   TIME STEP   27
 
 SOLVING FOR HEAD 
                                                   Max.-Head-Change                         Max.-Flux-Residual
  Residual-Control   Outer-Iter.   Inner-Iter.     Column Row Layer    Maximum-Head-Change  Column Row Layer    Maximum-Flux-Residual          L2-NORM 
          0                 1           2             5    8     1       0.1097782788E+00       5    8    1         0.5987798099E+01      0.1378284637E+02
          0                 2           2             5    6     1      -0.1462116302E+00       5    8    1        -0.8057158713E+01      0.1948068327E+02
          0                 3           2             5    6     1       0.9956390344E-02       5    8    1         0.5639961723E+00      0.1363570807E+01
          0                 4           2             5    6     1      -0.3961744648E-03       5    8    1        -0.2306749960E-01      0.5576617471E-01
          0                 5           1             5    6     1       0.4884994883E-05       5    8    1         0.2923362881E-03      0.7065873574E-03

    ------------------------------------------------
       NWT REQUIRED            5 OUTER ITERATIONS 
       AND A TOTAL OF          9 INNER ITERATIONS.
    ------------------------------------------------

 NO OUTPUT CONTROL FOR STRESS PERIOD   44   TIME STEP   28
 
 SOLVING FOR HEAD 
                                                   Max.-Head-Change                         Max.-Flux-Residual
  Residual-Control   Outer-Iter.   Inner-Iter.     Column Row Layer    Maximum-Head-Change  Column Row Layer    Maximum-Flux-Residual          L2-NORM 
          0                 1           2             5    8     1       0.1086899004E+00       5    8    1         0.5925842248E+01      0.1371985899E+02
          0                 2           2             4    7     1      -0.3478041658E+00       5    8    1        -0.1892642707E+02      0.4610150728E+02
          0                 3           2             4    7     1       0.2368358230E-01       5    8    1         0.1324754941E+01      0.3226921914E+01
          0                 4           2             4    7     1      -0.9423947214E-03       5    8    1        -0.5417649206E-01      0.1319731052E+00
          0                 5           1             4    7     1       0.1162013086E-04       5    8    1         0.6861612285E-03      0.1672185303E-02

    ------------------------------------------------
       NWT REQUIRED            5 OUTER ITERATIONS 
       AND A TOTAL OF          9 INNER ITERATIONS.
    ------------------------------------------------

 NO OUTPUT CONTROL FOR STRESS PERIOD   44   TIME STEP   29
 
 SOLVING FOR HEAD 
                                                   Max.-Head-Change                         Max.-Flux-Residual
  Residual-Control   Outer-Iter.   Inner-Iter.     Column Row Layer    Maximum-Head-Change  Column Row Layer    Maximum-Flux-Residual          L2-NORM 
          0                 1           2             5    8     1       0.1135494145E+00       5    8    1         0.6191844293E+01      0.1431315422E+02
          0                 2           2             5    6     1      -0.1650028684E+00       5    8    1        -0.9090183807E+01      0.2200085068E+02
          0                 3           2             5    6     1       0.1123598087E-01       5    8    1         0.6363064791E+00      0.1540022044E+01
          0                 4           2             5    6     1      -0.4470906789E-03       5    8    1        -0.2602500215E-01      0.6298576043E-01
          0                 5           1             5    6     1       0.5512813842E-05       5    8    1         0.3298169490E-03      0.7981947121E-03

    ------------------------------------------------
       NWT REQUIRED            5 OUTER ITERATIONS 
       AND A TOTAL OF          9 INNER ITERATIONS.
    ------------------------------------------------

 NO OUTPUT CONTROL FOR STRESS PERIOD   44   TIME STEP   30



 STREAM LISTING     PERIOD     44   STEP       30

 LAYER ROW COL. STREAM  RCH.  FLOW INTO     FLOW TO   FLOW OUT OF   OVRLND.     DIRECT     STREAM       STREAM     STREAM     STREAM   STREAMBED  STREAMBED
                SEG.NO.  NO.  STRM. RCH.    AQUIFER    STRM. RCH.    RUNOFF     PRECIP       ET          HEAD       DEPTH      WIDTH   CONDCTNC.   GRADIENT

   1    1    1     1     1    1.3875E+01  1.7894E-01   1.3696E+01  0.000E+00  0.000E+00  0.000E+00  1.09404E+03  9.876E-01  9.972E+00  4.487E-02  1.329E+00
   1    2    2     1     2    1.3696E+01  2.7573E-01   1.3420E+01  0.000E+00  0.000E+00  0.000E+00  1.08904E+03  9.829E-01  9.890E+00  6.923E-02  1.328E+00
   1    3    3     1     3    1.3420E+01  2.3380E-01   1.3186E+01  0.000E+00  0.000E+00  0.000E+00  1.08340E+03  9.775E-01  9.797E+00  5.878E-02  1.326E+00
   1    3    4     1     4    1.3186E+01  2.1419E-01   1.2972E+01  0.000E+00  0.000E+00  0.000E+00  1.07838E+03  9.727E-01  9.714E+00  5.391E-02  1.324E+00
   1    4    5     2     1    1.0972E+01  2.9101E-01   1.0681E+01  0.000E+00  0.000E+00  0.000E+00  1.07266E+03  7.309E-01  1.200E+01  7.800E-02  1.244E+00
   1    5    6     2     2    1.0681E+01  2.2322E-01   1.0458E+01  0.000E+00  0.000E+00  0.000E+00  1.06723E+03  7.204E-01  1.200E+01  6.000E-02  1.240E+00
   1    6    6     2     3    1.0458E+01  2.2267E-01   1.0235E+01  0.000E+00  0.000E+00  0.000E+00  1.06250E+03  7.112E-01  1.200E+01  6.000E-02  1.237E+00
   1    7    6     2     4    1.0235E+01  2.2212E-01   1.0013E+01  0.000E+00  0.000E+00  0.000E+00  1.05778E+03  7.020E-01  1.200E+01  6.000E-02  1.234E+00
   1    8    6     2     5    1.0013E+01  2.2157E-01   9.7913E+00  0.000E+00  0.000E+00  0.000E+00  1.05305E+03  6.928E-01  1.200E+01  6.000E-02  1.231E+00
   1    3    5     3     1    2.0000E+00  2.8252E-01   1.7175E+00  0.000E+00  0.000E+00  0.000E+00  1.07555E+03  1.909E+00  9.636E+00  7.227E-02  1.955E+00
   1    3    6     3     2    1.7175E+00  2.4905E-01   1.4684E+00  0.000E+00  0.000E+00  0.000E+00  1.07264E+03  1.727E+00  8.909E+00  6.682E-02  1.864E+00
   1    3    7     3     3    1.4684E+00  1.9718E-01   1.2712E+00  0.000E+00  0.000E+00  0.000E+00  1.06987E+03  1.555E+00  8.218E+00  5.547E-02  1.777E+00
   1    4    8     3     4    1.2712E+00  2.2567E-01   1.0456E+00  0.000E+00  0.000E+00  0.000E+00  1.06682E+03  1.364E+00  7.455E+00  6.709E-02  1.682E+00
   1    5    8     3     5    1.0456E+00  1.5790E-01   8.8768E-01  0.000E+00  0.000E+00  0.000E+00  1.06362E+03  1.164E+00  6.655E+00  4.991E-02  1.582E+00
   1    6    8     3     6    8.8768E-01  5.5980E-02   8.3170E-01  0.000E+00  0.000E+00  0.000E+00  1.06158E+03  1.036E+00  6.145E+00  1.844E-02  1.518E+00
   1    5   10     4     1    1.0000E+01  9.0919E-02   9.9091E+00  0.000E+00  0.000E+00  0.000E+00  1.07836E+03  6.368E-01  1.000E+01  2.500E-02  1.212E+00
   1    5    9     4     2    9.9091E+00  1.8158E-01   9.7275E+00  0.000E+00  0.000E+00  0.000E+00  1.07154E+03  6.315E-01  1.000E+01  5.000E-02  1.211E+00
   1    6    8     4     3    9.7275E+00  1.2689E-01   9.6006E+00  0.000E+00  0.000E+00  0.000E+00  1.06381E+03  6.256E-01  1.000E+01  3.500E-02  1.209E+00
   1    6    8     5     1    1.0432E+01  2.2686E-01   1.0205E+01  0.000E+00  0.000E+00  0.000E+00  1.05868E+03  6.790E-01  1.542E+01  6.166E-02  1.226E+00
   1    7    7     5     2    1.0205E+01  2.7894E-01   9.9265E+00  0.000E+00  0.000E+00  0.000E+00  1.05417E+03  6.732E-01  1.519E+01  7.594E-02  1.224E+00
   1    8    7     5     3    9.9265E+00  1.9221E-01   9.7343E+00  0.000E+00  0.000E+00  0.000E+00  1.04992E+03  6.676E-01  1.497E+01  5.241E-02  1.223E+00
   1    8    6     5     4    9.7343E+00  1.3577E-01   9.5985E+00  0.000E+00  0.000E+00  0.000E+00  1.04691E+03  6.637E-01  1.482E+01  3.706E-02  1.221E+00
   1    9    6     6     1    9.5985E+00  2.2097E-01   9.3776E+00  0.000E+00  0.000E+00  0.000E+00  1.04341E+03  6.828E-01  1.200E+01  6.000E-02  1.228E+00
   1   10    7     6     2    9.3776E+00  2.2039E-01   9.1572E+00  0.000E+00  0.000E+00  0.000E+00  1.03885E+03  6.732E-01  1.200E+01  6.000E-02  1.224E+00
   1   11    7     6     3    9.1572E+00  2.1981E-01   8.9374E+00  0.000E+00  0.000E+00  0.000E+00  1.03430E+03  6.636E-01  1.200E+01  6.000E-02  1.221E+00
   1   12    7     6     4    8.9374E+00  2.1923E-01   8.7181E+00  0.000E+00  0.000E+00  0.000E+00  1.02974E+03  6.539E-01  1.200E+01  6.000E-02  1.218E+00
   1   13    7     6     5    8.7181E+00  2.4889E-03   8.7156E+00  0.000E+00  0.000E+00  0.000E+00  1.02656E+03  6.489E-01  1.200E+01  2.400E-02  3.457E-02
   1   14    9     7     1    1.5000E+02  1.4035E+00   1.4860E+02  0.000E+00  0.000E+00  0.000E+00  1.03987E+03  2.288E+00  5.529E+01  5.593E-01  8.365E-01
   1   13    8     7     2    1.4860E+02  2.0407E+00   1.4656E+02  0.000E+00  0.000E+00  0.000E+00  1.03478E+03  2.278E+00  5.525E+01  6.147E-01  1.107E+00
   1   13    7     7     3    1.4656E+02  1.8052E+00   1.4475E+02  0.000E+00  0.000E+00  0.000E+00  1.02969E+03  2.268E+00  5.521E+01  5.583E-01  1.078E+00
   1   13    6     8     1    1.5347E+02  1.1484E+00   1.5232E+02  0.000E+00  0.000E+00  0.000E+00  1.02471E+03  2.837E+00  4.114E+01  4.192E-01  9.131E-01
   1   13    5     8     2    1.5232E+02  3.9475E-01   1.5192E+02  0.000E+00  0.000E+00  0.000E+00  1.01846E+03  2.832E+00  4.106E+01  4.184E-01  3.145E-01
   1   13    4     8     3    1.5192E+02 -1.6752E+00   1.5360E+02  0.000E+00  0.000E+00  0.000E+00  1.01221E+03  2.836E+00  4.112E+01  4.191E+00 -1.332E-01
   1   13    3     8     4    1.5360E+02 -3.2684E+00   1.5687E+02  0.000E+00  0.000E+00  0.000E+00  1.00598E+03  2.853E+00  4.137E+01  4.216E+00 -2.584E-01
   1   13    2     8     5    1.5687E+02 -2.5020E+00   1.5937E+02  0.000E+00  0.000E+00  0.000E+00  9.99748E+02  2.873E+00  4.166E+01  4.245E+00 -1.965E-01
   1   13    1     8     6    1.5937E+02 -1.9842E+00   1.6135E+02  0.000E+00  0.000E+00  0.000E+00  9.94763E+02  2.888E+00  4.188E+01  2.561E+00 -2.583E-01
   1    8    6     9     1    9.7913E+00  0.0000E+00   9.7913E+00  0.000E+00  0.000E+00  0.000E+00  1.08099E+03  2.238E+00  4.000E+00  0.000E+00  1.746E+00
   1    8    5     9     2    9.7913E+00  0.0000E+00   9.7913E+00  0.000E+00  0.000E+00  0.000E+00  1.08049E+03  2.238E+00  4.000E+00  0.000E+00  1.746E+00





UNSATURATED ZONE PACKAGE VOLUMETRIC BUDGET FOR  TIME STEP    30 STRESS PERIOD   44
  ------------------------------------------------------------------------------



     CUMULATIVE VOLUMES      L**3       RATES FOR THIS TIME STEP      L**3/T
     ------------------                 ------------------------

           IN:                                      IN:
           ---                                      ---
        INFILTRATION =  1878251385.3453          INFILTRATION =          61.4651

          OUT:                                     OUT:
          ----                                     ----
              UZF ET =  1536959346.6954                UZF ET =          60.8175
        UZF RECHARGE =    65927686.2255          UZF RECHARGE =       0.0000E+00

            IN - OUT =   275364352.4245              IN - OUT =           0.6476

          STORAGE:                                 STORAGE:
          --------                                 --------
      STORAGE CHANGE =   275366013.1343        STORAGE CHANGE =           0.6476

 PERCENT DISCREPANCY IS DIFFERENCE BETWEEN IN-OUT MINUS CHANGE IN STORAGE
 DIVIDED BY THE AVERAGE OF IN AND OUT TIMES 100

 PERCENT DISCREPANCY =          -0.00     PERCENT DISCREPANCY =           0.00






1
  VOLUMETRIC BUDGET FOR AGRICULTURAL FIELDS AT  END OF TIME STEP   30, STRESS PERIOD  44
  ------------------------------------------------------------------------------

     CUMULATIVE VOLUMES      L**3       RATES FOR THIS TIME STEP      L**3/T
     ------------------                 ------------------------

           IN:                                      IN:
           ---                                      ---
               AG WELLS  =  1196200320.0000                 AG WELLS  =          50.8261
      DIVERSION SEGMENTS =   586131520.0000        DIVERSION SEGMENTS =           9.7913
           GW IRRIGATION =           0.0000             GW IRRIGATION =           0.0000
           SW IRRIGATION =           0.0000             SW IRRIGATION =           0.0000
        SYSTEM LOSSES GW =           0.0000          SYSTEM LOSSES GW =           0.0000
        SYSTEM LOSSES SW =           0.0000          SYSTEM LOSSES SW =           0.0000

                TOTAL IN =  1782331904.0000                  TOTAL IN =          60.6174

          OUT:                                     OUT:
          ----                                     ----
               AG WELLS  =           0.0000                 AG WELLS  =           0.0000
      DIVERSION SEGMENTS =           0.0000        DIVERSION SEGMENTS =           0.0000
           GW IRRIGATION =  1196200320.0000             GW IRRIGATION =          50.8261
           SW IRRIGATION =   586143104.0000             SW IRRIGATION =           9.7915
        SYSTEM LOSSES GW =           0.0000          SYSTEM LOSSES GW =           0.0000
        SYSTEM LOSSES SW =           0.0000          SYSTEM LOSSES SW =           0.0000

               TOTAL OUT =  1782343424.0000                 TOTAL OUT =          60.6176

                IN - OUT =      -11520.0000                  IN - OUT =      -1.9455E-04

     PERCENT DISCREPANCY =          -0.00         PERCENT DISCREPANCY =          -0.00



1
  VOLUMETRIC BUDGET FOR ENTIRE MODEL AT END OF TIME STEP   30, STRESS PERIOD  44
  ------------------------------------------------------------------------------

     CUMULATIVE VOLUMES      L**3       RATES FOR THIS TIME STEP      L**3/T
     ------------------                 ------------------------

           IN:                                      IN:
           ---                                      ---
             STORAGE     =  1690574336.0000               STORAGE     =          48.1600
       CONSTANT HEAD     =           0.0000         CONSTANT HEAD     =           0.0000
     HEAD DEP BOUNDS     =    32675522.0000       HEAD DEP BOUNDS     =           0.2904
      STREAM LEAKAGE     =  1360887680.0000        STREAM LEAKAGE     =          12.1601
        UZF RECHARGE     =    65927680.0000          UZF RECHARGE     =           0.0000
               GW ET     =           0.0000                 GW ET     =           0.0000
     SURFACE LEAKAGE     =           0.0000       SURFACE LEAKAGE     =           0.0000
           AG WELLS      =           0.0000             AG WELLS      =           0.0000

                TOTAL IN =  3150065152.0000                  TOTAL IN =          60.6105

          OUT:                                     OUT:
          ----                                     ----
             STORAGE     =   809553920.0000               STORAGE     =       6.8204E-02
       CONSTANT HEAD     =           0.0000         CONSTANT HEAD     =           0.0000
     HEAD DEP BOUNDS     =    32592044.0000       HEAD DEP BOUNDS     =           0.2865
      STREAM LEAKAGE     =  1111738752.0000        STREAM LEAKAGE     =           9.4297
        UZF RECHARGE     =           0.0000          UZF RECHARGE     =           0.0000
               GW ET     =           0.0000                 GW ET     =           0.0000
     SURFACE LEAKAGE     =           0.0000       SURFACE LEAKAGE     =           0.0000
           AG WELLS      =  1196200320.0000             AG WELLS      =          50.8261

               TOTAL OUT =  3150085120.0000                 TOTAL OUT =          60.6105

                IN - OUT =      -19968.0000                  IN - OUT =       3.0518E-05

     PERCENT DISCREPANCY =          -0.00         PERCENT DISCREPANCY =           0.00






         TIME SUMMARY AT END OF TIME STEP   30 IN STRESS PERIOD   44
                    SECONDS     MINUTES      HOURS       DAYS        YEARS
                    -----------------------------------------------------------
   TIME STEP LENGTH  87667.      1461.1      24.352      1.0147     2.77799E-03
 STRESS PERIOD TIME 2.63000E+06  43833.      730.56      30.440     8.33397E-02
         TOTAL TIME 1.13175E+08 1.88626E+06  31438.      1309.9      3.5863    
1
1
                            STRESS PERIOD NO.   45, LENGTH =   2630000.    
                            -----------------------------------------------

                              NUMBER OF TIME STEPS =    30

                               MULTIPLIER FOR DELT =     1.000

                            INITIAL TIME STEP SIZE =   87666.66    

 REUSING NON-PARAMETER GHB CELLS FROM LAST STRESS PERIOD

      2 GHB CELLS

 REUSING STREAM SEGMENT DATA FROM LAST STRESS PERIOD



            AREAL INFILTRATION RATE
 READING ON UNIT   19 WITH FORMAT: (FREE)              

            1           2           3           4           5           6           7           8           9          10
 ........................................................................................................................
   1   1.0000E-10  2.0000E-10   0.000       0.000       0.000       0.000       0.000       0.000       0.000       0.000    
   2   2.0000E-10  1.0000E-10  2.0000E-10   0.000       0.000      8.0000E-10  8.0000E-10  5.0000E-10   0.000       0.000    
   3    0.000      5.0000E-10  1.0000E-10  1.0000E-10  8.0000E-10  8.0000E-10  5.0000E-10  5.0000E-10   0.000       0.000    
   4   8.0000E-10  5.0000E-10  1.0000E-10  1.0000E-10  1.0000E-10  1.0000E-10  1.0000E-10  1.0000E-10  2.0000E-10   0.000    
   5   8.0000E-10  5.0000E-10  1.0000E-10  1.0000E-10  1.0000E-10  1.0000E-10  1.0000E-10  1.0000E-10  1.0000E-10  1.0000E-10
   6   8.0000E-10  5.0000E-10  5.0000E-10  2.0000E-10  2.0000E-10  1.0000E-10  1.0000E-10  1.0000E-10  1.0000E-10  5.0000E-10
   7   8.0000E-10  5.0000E-10  5.0000E-10  2.0000E-10  2.0000E-10  1.0000E-10  1.0000E-10  2.0000E-10  2.0000E-10   0.000    
   8    0.000      5.0000E-10  5.0000E-10  2.0000E-10  2.0000E-10  1.0000E-10  1.0000E-10  2.0000E-10  5.0000E-10   0.000    
   9    0.000      5.0000E-10  5.0000E-10  2.0000E-10  2.0000E-10  1.0000E-10  1.0000E-10  2.0000E-10  5.0000E-10   0.000    
  10    0.000      5.0000E-10  5.0000E-10  2.0000E-10  2.0000E-10  1.0000E-10  1.0000E-10  2.0000E-10  5.0000E-10  8.0000E-10
  11    0.000      1.0000E-10  1.0000E-10  1.0000E-10  1.0000E-10  1.0000E-10  1.0000E-10  2.0000E-10  5.0000E-10   0.000    
  12   1.0000E-10  1.0000E-10  1.0000E-10  1.0000E-10  1.0000E-10  1.0000E-10  1.0000E-10  1.0000E-10  2.0000E-10   0.000    
  13   1.0000E-10  1.0000E-10  2.0000E-10  2.0000E-10  2.0000E-10  2.0000E-10  2.0000E-10  1.0000E-10  1.0000E-10   0.000    
  14    0.000      2.0000E-10  5.0000E-10  5.0000E-10  5.0000E-10  5.0000E-10  5.0000E-10  2.0000E-10  1.0000E-10   0.000    
  15    0.000       0.000      8.0000E-10  8.0000E-10  8.0000E-10  8.0000E-10   0.000       0.000       0.000       0.000    

                  ET RATE =  3.250000E-07

 USING ET EXTINCTION DEPTH FROM PREVIOUS STRESS PERIOD. CURRENT PERIOD IS:      45

 USING EXTINCTION WATER CONTENT FROM PREVIOUS STRESS PERIOD. CURRENT PERIOD IS:      45

 USING AIR ENTRY PRESSURE FROM PREVIOUS STRESS PERIOD. CURRENT PERIOD IS:      45

 USING ROOT PRESSURE HEAD FROM PREVIOUS STRESS PERIOD. CURRENT PERIOD IS:      45

 USING ROOT ACTIVITY FROM PREVIOUS STRESS PERIOD. CURRENT PERIOD IS:      45

 PROCESSING AG STRESS PERIOD DATA

 READING AG STRESS PERIOD DATA

 READING IRRIGATION SEGMENT

 READING IRRIGATION WELL

 READING SUPPLEMENTAL WELL

 END PROCESSING AG STRESS PERIOD DATA OPTIONS
 
 SOLVING FOR HEAD 
                                                   Max.-Head-Change                         Max.-Flux-Residual
  Residual-Control   Outer-Iter.   Inner-Iter.     Column Row Layer    Maximum-Head-Change  Column Row Layer    Maximum-Flux-Residual          L2-NORM 
          0                 1           2             5    8     1       0.1128638257E+00       5    8    1         0.6151848245E+01      0.1429385321E+02
          0                 2           2             4    7     1      -0.2782949326E+00       5    8    1        -0.1519902582E+02      0.3697049304E+02
          0                 3           2             4    7     1       0.1895049030E-01       5    8    1         0.1063902392E+01      0.2587862355E+01
          0                 4           2             4    7     1      -0.7540594681E-03       5    8    1        -0.4351278832E-01      0.1058424502E+00
          0                 5           1             4    7     1       0.9297877252E-05       5    8    1         0.5513749686E-03      0.1341287255E-02

    ------------------------------------------------
       NWT REQUIRED            5 OUTER ITERATIONS 
       AND A TOTAL OF          9 INNER ITERATIONS.
    ------------------------------------------------

 NO OUTPUT CONTROL FOR STRESS PERIOD   45   TIME STEP    1
 
 SOLVING FOR HEAD 
                                                   Max.-Head-Change                         Max.-Flux-Residual
  Residual-Control   Outer-Iter.   Inner-Iter.     Column Row Layer    Maximum-Head-Change  Column Row Layer    Maximum-Flux-Residual          L2-NORM 
          0                 1           2             5    8     1       0.1155418258E+00       5    8    1         0.6297491543E+01      0.1464425713E+02
          0                 2           2             5    8     1      -0.4482203478E-01       5    8    1        -0.2478634271E+01      0.5859436885E+01
          0                 3           2             5    8     1       0.1626808933E-02       5    8    1         0.9283546015E-01      0.2163758291E+00
          0                 4           2             4    7     1      -0.1471177624E-02       5    8    1        -0.8418921677E-01      0.2054513206E+00
          0                 5           2             4    7     1      -0.1407873886E-02       4    7    1        -0.7982912842E-01      0.1955268203E+00
          0                 6           2             4    7     1      -0.1403041717E-02       5    8    1        -0.7955532459E-01      0.1948687344E+00
          0                 7           1             4    7     1       0.1732740219E-04       4    7    1         0.1009707084E-02      0.2473517900E-02

    ------------------------------------------------
       NWT REQUIRED            7 OUTER ITERATIONS 
       AND A TOTAL OF         13 INNER ITERATIONS.
    ------------------------------------------------

 NO OUTPUT CONTROL FOR STRESS PERIOD   45   TIME STEP    2
 
 SOLVING FOR HEAD 
                                                   Max.-Head-Change                         Max.-Flux-Residual
  Residual-Control   Outer-Iter.   Inner-Iter.     Column Row Layer    Maximum-Head-Change  Column Row Layer    Maximum-Flux-Residual          L2-NORM 
          0                 1           2             5    8     1       0.1114275036E+00       5    8    1         0.6068509630E+01      0.1424427695E+02
          0                 2           2             5    7     1      -0.2041540373E+00       5    8    1        -0.1119184787E+02      0.2718281638E+02
          0                 3           2             5    7     1       0.1390194769E-01       5    8    1         0.7834193785E+00      0.1902754060E+01
          0                 4           2             5    7     1      -0.5531723873E-03       5    8    1        -0.3204194505E-01      0.7782191024E-01
          0                 5           1             5    7     1       0.6820861823E-05       5    8    1         0.4060701203E-03      0.9862241556E-03

    ------------------------------------------------
       NWT REQUIRED            5 OUTER ITERATIONS 
       AND A TOTAL OF          9 INNER ITERATIONS.
    ------------------------------------------------

 NO OUTPUT CONTROL FOR STRESS PERIOD   45   TIME STEP    3
 
 SOLVING FOR HEAD 
                                                   Max.-Head-Change                         Max.-Flux-Residual
  Residual-Control   Outer-Iter.   Inner-Iter.     Column Row Layer    Maximum-Head-Change  Column Row Layer    Maximum-Flux-Residual          L2-NORM 
          0                 1           2             5    8     1       0.1121078412E+00       5    8    1         0.6104222611E+01      0.1436584785E+02
          0                 2           2             5    8     1      -0.6343917545E-01       5    8    1        -0.3502650163E+01      0.8380331906E+01
          0                 3           2             5    8     1       0.4319962653E-02       5    8    1         0.2451849735E+00      0.5865674353E+00
          0                 4           2             5    8     1      -0.1718954020E-03       5    8    1        -0.1002808237E-01      0.2398741620E-01
          0                 5           1             5    8     1       0.2119544836E-05       5    8    1         0.1270867060E-03      0.3039055065E-03

    ------------------------------------------------
       NWT REQUIRED            5 OUTER ITERATIONS 
       AND A TOTAL OF          9 INNER ITERATIONS.
    ------------------------------------------------

 NO OUTPUT CONTROL FOR STRESS PERIOD   45   TIME STEP    4
 
 SOLVING FOR HEAD 
                                                   Max.-Head-Change                         Max.-Flux-Residual
  Residual-Control   Outer-Iter.   Inner-Iter.     Column Row Layer    Maximum-Head-Change  Column Row Layer    Maximum-Flux-Residual          L2-NORM 
          0                 1           2             5    8     1       0.1086441700E+00       5    8    1         0.5911439001E+01      0.1403158200E+02
          0                 2           2             4    7     1      -0.2158782728E+00       5    8    1        -0.1180058801E+02      0.2870200147E+02
          0                 3           2             4    7     1       0.1470029694E-01       5    8    1         0.8260300251E+00      0.2009094101E+01
          0                 4           2             4    7     1      -0.5849395831E-03       5    8    1        -0.3378472839E-01      0.8217128034E-01
          0                 5           1             4    7     1       0.7212556982E-05       5    8    1         0.4281565614E-03      0.1041343911E-02

    ------------------------------------------------
       NWT REQUIRED            5 OUTER ITERATIONS 
       AND A TOTAL OF          9 INNER ITERATIONS.
    ------------------------------------------------

 NO OUTPUT CONTROL FOR STRESS PERIOD   45   TIME STEP    5
 
 SOLVING FOR HEAD 
                                                   Max.-Head-Change                         Max.-Flux-Residual
  Residual-Control   Outer-Iter.   Inner-Iter.     Column Row Layer    Maximum-Head-Change  Column Row Layer    Maximum-Flux-Residual          L2-NORM 
          0                 1           2             5    8     1       0.1098805212E+00       5    8    1         0.5978081973E+01      0.1420539967E+02
          0                 2           2             5    8     1      -0.5991455892E-01       5    8    1        -0.3307911514E+01      0.7929026394E+01
          0                 3           2             5    8     1       0.4079951022E-02       5    8    1         0.2315533726E+00      0.5549727714E+00
          0                 4           2             5    8     1      -0.1623451070E-03       5    8    1        -0.9470548624E-02      0.2269505773E-01
          0                 5           1             5    8     1       0.2001785431E-05       5    8    1         0.1200210374E-03      0.2875950352E-03

    ------------------------------------------------
       NWT REQUIRED            5 OUTER ITERATIONS 
       AND A TOTAL OF          9 INNER ITERATIONS.
    ------------------------------------------------

 NO OUTPUT CONTROL FOR STRESS PERIOD   45   TIME STEP    6
 
 SOLVING FOR HEAD 
                                                   Max.-Head-Change                         Max.-Flux-Residual
  Residual-Control   Outer-Iter.   Inner-Iter.     Column Row Layer    Maximum-Head-Change  Column Row Layer    Maximum-Flux-Residual          L2-NORM 
          0                 1           2             5    8     1       0.1065031691E+00       5    8    1         0.5790284705E+01      0.1387660653E+02
          0                 2           2             4    7     1      -0.2126483985E+00       5    8    1        -0.1160493345E+02      0.2824642745E+02
          0                 3           2             4    7     1       0.1448035772E-01       5    8    1         0.8123346507E+00      0.1977204493E+01
          0                 4           2             4    7     1      -0.5761879803E-03       5    8    1        -0.3322458472E-01      0.8086695542E-01
          0                 5           1             4    7     1       0.7104645697E-05       5    8    1         0.4210578165E-03      0.1024819195E-02

    ------------------------------------------------
       NWT REQUIRED            5 OUTER ITERATIONS 
       AND A TOTAL OF          9 INNER ITERATIONS.
    ------------------------------------------------

 NO OUTPUT CONTROL FOR STRESS PERIOD   45   TIME STEP    7
 
 SOLVING FOR HEAD 
                                                   Max.-Head-Change                         Max.-Flux-Residual
  Residual-Control   Outer-Iter.   Inner-Iter.     Column Row Layer    Maximum-Head-Change  Column Row Layer    Maximum-Flux-Residual          L2-NORM 
          0                 1           2             5    8     1       0.1078161832E+00       5    8    1         0.5861363253E+01      0.1405146775E+02
          0                 2           2             5    6     1      -0.6067869706E-01       5    8    1        -0.3348912064E+01      0.8049773720E+01
          0                 3           2             5    6     1       0.4131986218E-02       5    8    1         0.2344234004E+00      0.5634255607E+00
          0                 4           2             5    6     1      -0.1644156350E-03       5    8    1        -0.9587932955E-02      0.2304076330E-01
          0                 5           1             5    6     1       0.2027313164E-05       5    8    1         0.1215086563E-03      0.2919364448E-03

    ------------------------------------------------
       NWT REQUIRED            5 OUTER ITERATIONS 
       AND A TOTAL OF          9 INNER ITERATIONS.
    ------------------------------------------------

 NO OUTPUT CONTROL FOR STRESS PERIOD   45   TIME STEP    8
 
 SOLVING FOR HEAD 
                                                   Max.-Head-Change                         Max.-Flux-Residual
  Residual-Control   Outer-Iter.   Inner-Iter.     Column Row Layer    Maximum-Head-Change  Column Row Layer    Maximum-Flux-Residual          L2-NORM 
          0                 1           2             5    8     1       0.1046346956E+00       5    8    1         0.5684561516E+01      0.1374057006E+02
          0                 2           2             4    7     1      -0.2138228907E+00       5    8    1        -0.1164818104E+02      0.2837274018E+02
          0                 3           2             4    7     1       0.1456033019E-01       5    8    1         0.8153603196E+00      0.1986044628E+01
          0                 4           2             4    7     1      -0.5793701888E-03       5    8    1        -0.3334817885E-01      0.8122839698E-01
          0                 5           1             4    7     1       0.7143883822E-05       5    8    1         0.4226135281E-03      0.1029386359E-02

    ------------------------------------------------
       NWT REQUIRED            5 OUTER ITERATIONS 
       AND A TOTAL OF          9 INNER ITERATIONS.
    ------------------------------------------------

 NO OUTPUT CONTROL FOR STRESS PERIOD   45   TIME STEP    9
 
 SOLVING FOR HEAD 
                                                   Max.-Head-Change                         Max.-Flux-Residual
  Residual-Control   Outer-Iter.   Inner-Iter.     Column Row Layer    Maximum-Head-Change  Column Row Layer    Maximum-Flux-Residual          L2-NORM 
          0                 1           2             5    8     1       0.1061294613E+00       5    8    1         0.5765836185E+01      0.1392866673E+02
          0                 2           2             5    6     1      -0.6024722322E-01       5    8    1        -0.3323842600E+01      0.8006258889E+01
          0                 3           2             5    6     1       0.4102604634E-02       5    8    1         0.2326685558E+00      0.5603789643E+00
          0                 4           2             5    6     1      -0.1632465131E-03       5    8    1        -0.9516159625E-02      0.2291617190E-01
          0                 5           1             5    6     1       0.2012897415E-05       5    8    1         0.1205990800E-03      0.2903819080E-03

    ------------------------------------------------
       NWT REQUIRED            5 OUTER ITERATIONS 
       AND A TOTAL OF          9 INNER ITERATIONS.
    ------------------------------------------------

 NO OUTPUT CONTROL FOR STRESS PERIOD   45   TIME STEP   10
 
 SOLVING FOR HEAD 
                                                   Max.-Head-Change                         Max.-Flux-Residual
  Residual-Control   Outer-Iter.   Inner-Iter.     Column Row Layer    Maximum-Head-Change  Column Row Layer    Maximum-Flux-Residual          L2-NORM 
          0                 1           2             5    8     1       0.1030796061E+00       5    8    1         0.5596449828E+01      0.1362935448E+02
          0                 2           2             4    7     1      -0.2136848662E+00       5    8    1        -0.1162357820E+02      0.2832991881E+02
          0                 3           2             4    7     1       0.1455092839E-01       5    8    1         0.8136347912E+00      0.1983044317E+01
          0                 4           2             4    7     1      -0.5789960958E-03       5    8    1        -0.3327727384E-01      0.8110542742E-01
          0                 5           1             4    7     1       0.7139271051E-05       5    8    1         0.4216925054E-03      0.1027813092E-02

    ------------------------------------------------
       NWT REQUIRED            5 OUTER ITERATIONS 
       AND A TOTAL OF          9 INNER ITERATIONS.
    ------------------------------------------------

 NO OUTPUT CONTROL FOR STRESS PERIOD   45   TIME STEP   11
 
 SOLVING FOR HEAD 
                                                   Max.-Head-Change                         Max.-Flux-Residual
  Residual-Control   Outer-Iter.   Inner-Iter.     Column Row Layer    Maximum-Head-Change  Column Row Layer    Maximum-Flux-Residual          L2-NORM 
          0                 1           2             5    8     1       0.1046952163E+00       5    8    1         0.5684529223E+01      0.1382487111E+02
          0                 2           2             5    6     1      -0.6020193902E-01       5    8    1        -0.3320258290E+01      0.8012717084E+01
          0                 3           2             5    6     1       0.4099520961E-02       5    8    1         0.2324176604E+00      0.5608307903E+00
          0                 4           2             5    6     1      -0.1631238110E-03       5    8    1        -0.9505897970E-02      0.2293456330E-01
          0                 5           1             5    6     1       0.2011384430E-05       5    8    1         0.1204690329E-03      0.2905825215E-03

    ------------------------------------------------
       NWT REQUIRED            5 OUTER ITERATIONS 
       AND A TOTAL OF          9 INNER ITERATIONS.
    ------------------------------------------------

 NO OUTPUT CONTROL FOR STRESS PERIOD   45   TIME STEP   12
 
 SOLVING FOR HEAD 
                                                   Max.-Head-Change                         Max.-Flux-Residual
  Residual-Control   Outer-Iter.   Inner-Iter.     Column Row Layer    Maximum-Head-Change  Column Row Layer    Maximum-Flux-Residual          L2-NORM 
          0                 1           2             5    8     1       0.1017681546E+00       5    8    1         0.5522043645E+01      0.1353666610E+02
          0                 2           2             4    7     1      -0.2139132966E+00       5    8    1        -0.1162076978E+02      0.2833804400E+02
          0                 3           2             4    7     1       0.1456648031E-01       5    8    1         0.8134351283E+00      0.1983610533E+01
          0                 4           2             4    7     1      -0.5796149377E-03       5    8    1        -0.3326880680E-01      0.8112836236E-01
          0                 5           1             4    7     1       0.7146901614E-05       5    8    1         0.4215647646E-03      0.1028097458E-02

    ------------------------------------------------
       NWT REQUIRED            5 OUTER ITERATIONS 
       AND A TOTAL OF          9 INNER ITERATIONS.
    ------------------------------------------------

 NO OUTPUT CONTROL FOR STRESS PERIOD   45   TIME STEP   13
 
 SOLVING FOR HEAD 
                                                   Max.-Head-Change                         Max.-Flux-Residual
  Residual-Control   Outer-Iter.   Inner-Iter.     Column Row Layer    Maximum-Head-Change  Column Row Layer    Maximum-Flux-Residual          L2-NORM 
          0                 1           2             5    8     1       0.1034970885E+00       5    8    1         0.5616488405E+01      0.1373943944E+02
          0                 2           2             5    6     1      -0.6006981366E-01       5    8    1        -0.3312119981E+01      0.8005930736E+01
          0                 3           2             5    6     1       0.4090523754E-02       5    8    1         0.2318479857E+00      0.5603553505E+00
          0                 4           2             5    6     1      -0.1627658035E-03       5    8    1        -0.9482598212E-02      0.2291509564E-01
          0                 5           1             5    6     1       0.2006970038E-05       5    8    1         0.1201737421E-03      0.2903472033E-03

    ------------------------------------------------
       NWT REQUIRED            5 OUTER ITERATIONS 
       AND A TOTAL OF          9 INNER ITERATIONS.
    ------------------------------------------------

 NO OUTPUT CONTROL FOR STRESS PERIOD   45   TIME STEP   14
 
 SOLVING FOR HEAD 
                                                   Max.-Head-Change                         Max.-Flux-Residual
  Residual-Control   Outer-Iter.   Inner-Iter.     Column Row Layer    Maximum-Head-Change  Column Row Layer    Maximum-Flux-Residual          L2-NORM 
          0                 1           2             5    8     1       0.1006721281E+00       5    8    1         0.5459739358E+01      0.1346052801E+02
          0                 2           2             4    7     1      -0.2140175679E+00       5    8    1        -0.1161318055E+02      0.2833237375E+02
          0                 3           2             4    7     1       0.1457357803E-01       5    8    1         0.8129012611E+00      0.1983211576E+01
          0                 4           2             4    7     1      -0.5798973755E-03       5    8    1        -0.3324671420E-01      0.8111188526E-01
          0                 5           1             4    7     1       0.7150384155E-05       5    8    1         0.4212673148E-03      0.1027886228E-02

    ------------------------------------------------
       NWT REQUIRED            5 OUTER ITERATIONS 
       AND A TOTAL OF          9 INNER ITERATIONS.
    ------------------------------------------------

 NO OUTPUT CONTROL FOR STRESS PERIOD   45   TIME STEP   15
 
 SOLVING FOR HEAD 
                                                   Max.-Head-Change                         Max.-Flux-Residual
  Residual-Control   Outer-Iter.   Inner-Iter.     Column Row Layer    Maximum-Head-Change  Column Row Layer    Maximum-Flux-Residual          L2-NORM 
          0                 1           2             5    8     1       0.1024950989E+00       5    8    1         0.5559465149E+01      0.1366907123E+02
          0                 2           2             5    6     1      -0.5998593542E-01       5    8    1        -0.3306809086E+01      0.8004246070E+01
          0                 3           2             5    6     1       0.4084811970E-02       5    8    1         0.2314762277E+00      0.5602370920E+00
          0                 4           2             5    6     1      -0.1625385263E-03       5    8    1        -0.9467393255E-02      0.2291023805E-01
          0                 5           1             5    6     1       0.2004167539E-05       5    8    1         0.1199810522E-03      0.2902648243E-03

    ------------------------------------------------
       NWT REQUIRED            5 OUTER ITERATIONS 
       AND A TOTAL OF          9 INNER ITERATIONS.
    ------------------------------------------------

 NO OUTPUT CONTROL FOR STRESS PERIOD   45   TIME STEP   16
 
 SOLVING FOR HEAD 
                                                   Max.-Head-Change                         Max.-Flux-Residual
  Residual-Control   Outer-Iter.   Inner-Iter.     Column Row Layer    Maximum-Head-Change  Column Row Layer    Maximum-Flux-Residual          L2-NORM 
          0                 1           2             5    8     1       0.9975847374E-01       5    8    1         0.5407675011E+01      0.1339832605E+02
          0                 2           2             4    7     1      -0.2141433700E+00       5    8    1        -0.1160837197E+02      0.2833174779E+02
          0                 3           2             4    7     1       0.1458214213E-01       5    8    1         0.8125623497E+00      0.1983165975E+01
          0                 4           2             4    7     1      -0.5802381612E-03       5    8    1        -0.3323262646E-01      0.8110984699E-01
          0                 5           1             4    7     1       0.7154586392E-05       5    6    1         0.4211017790E-03      0.1027853285E-02

    ------------------------------------------------
       NWT REQUIRED            5 OUTER ITERATIONS 
       AND A TOTAL OF          9 INNER ITERATIONS.
    ------------------------------------------------

 NO OUTPUT CONTROL FOR STRESS PERIOD   45   TIME STEP   17
 
 SOLVING FOR HEAD 
                                                   Max.-Head-Change                         Max.-Flux-Residual
  Residual-Control   Outer-Iter.   Inner-Iter.     Column Row Layer    Maximum-Head-Change  Column Row Layer    Maximum-Flux-Residual          L2-NORM 
          0                 1           2             5    8     1       0.1016628624E+00       5    8    1         0.5511968902E+01      0.1361180356E+02
          0                 2           2             5    6     1      -0.5990758557E-01       5    8    1        -0.3301945431E+01      0.8002117487E+01
          0                 3           2             5    6     1       0.4079476642E-02       5    8    1         0.2311357752E+00      0.5600879061E+00
          0                 4           2             5    6     1      -0.1623262284E-03       5    8    1        -0.9453468729E-02      0.2290410341E-01
          0                 5           1             5    6     1       0.2001549640E-05       5    8    1         0.1198045852E-03      0.2901803980E-03

    ------------------------------------------------
       NWT REQUIRED            5 OUTER ITERATIONS 
       AND A TOTAL OF          9 INNER ITERATIONS.
    ------------------------------------------------

 NO OUTPUT CONTROL FOR STRESS PERIOD   45   TIME STEP   18
 
 SOLVING FOR HEAD 
                                                   Max.-Head-Change                         Max.-Flux-Residual
  Residual-Control   Outer-Iter.   Inner-Iter.     Column Row Layer    Maximum-Head-Change  Column Row Layer    Maximum-Flux-Residual          L2-NORM 
          0                 1           2             5    8     1       0.9900167784E-01       5    8    1         0.5364411622E+01      0.1334814147E+02
          0                 2           2             4    7     1      -0.2142496304E+00       5    8    1        -0.1160393040E+02      0.2833051701E+02
          0                 3           2             4    7     1       0.1458937580E-01       5    8    1         0.8122494117E+00      0.1983077434E+01
          0                 4           2             4    7     1      -0.5805260066E-03       5    8    1        -0.3321962893E-01      0.8110604550E-01
          0                 5           1             4    7     1       0.7158135694E-05       5    6    1         0.4209398594E-03      0.1027785663E-02

    ------------------------------------------------
       NWT REQUIRED            5 OUTER ITERATIONS 
       AND A TOTAL OF          9 INNER ITERATIONS.
    ------------------------------------------------

 NO OUTPUT CONTROL FOR STRESS PERIOD   45   TIME STEP   19
 
 SOLVING FOR HEAD 
                                                   Max.-Head-Change                         Max.-Flux-Residual
  Residual-Control   Outer-Iter.   Inner-Iter.     Column Row Layer    Maximum-Head-Change  Column Row Layer    Maximum-Flux-Residual          L2-NORM 
          0                 1           2             5    8     1       0.1009758793E+00       5    8    1         0.5472620185E+01      0.1356573499E+02
          0                 2           2             5    7     1      -0.5986779686E-01       5    8    1        -0.3298043859E+01      0.8001026779E+01
          0                 3           2             5    7     1       0.4076763598E-02       5    8    1         0.2308626674E+00      0.5600112592E+00
          0                 4           2             5    7     1      -0.1622182910E-03       5    8    1        -0.9442298576E-02      0.2290093064E-01
          0                 5           1             5    7     1       0.2000223832E-05       5    8    1         0.1196630242E-03      0.2901605647E-03

    ------------------------------------------------
       NWT REQUIRED            5 OUTER ITERATIONS 
       AND A TOTAL OF          9 INNER ITERATIONS.
    ------------------------------------------------

 NO OUTPUT CONTROL FOR STRESS PERIOD   45   TIME STEP   20
 
 SOLVING FOR HEAD 
                                                   Max.-Head-Change                         Max.-Flux-Residual
  Residual-Control   Outer-Iter.   Inner-Iter.     Column Row Layer    Maximum-Head-Change  Column Row Layer    Maximum-Flux-Residual          L2-NORM 
          0                 1           2             5    8     1       0.9837969014E-01       5    8    1         0.5328707418E+01      0.1330827319E+02
          0                 2           2             4    7     1      -0.2143497825E+00       5    8    1        -0.1160039351E+02      0.2833021611E+02
          0                 3           2             4    7     1       0.1459619374E-01       5    8    1         0.8119995117E+00      0.1983052932E+01
          0                 4           2             4    7     1      -0.5807973087E-03       5    8    1        -0.3320918210E-01      0.8110476986E-01
          0                 5           1             4    7     1       0.7161480793E-05       5    6    1         0.4207924392E-03      0.1027779292E-02

    ------------------------------------------------
       NWT REQUIRED            5 OUTER ITERATIONS 
       AND A TOTAL OF          9 INNER ITERATIONS.
    ------------------------------------------------

 NO OUTPUT CONTROL FOR STRESS PERIOD   45   TIME STEP   21
 
 SOLVING FOR HEAD 
                                                   Max.-Head-Change                         Max.-Flux-Residual
  Residual-Control   Outer-Iter.   Inner-Iter.     Column Row Layer    Maximum-Head-Change  Column Row Layer    Maximum-Flux-Residual          L2-NORM 
          0                 1           2             5    8     1       0.1004136622E+00       5    8    1         0.5440265805E+01      0.1352933403E+02
          0                 2           2             5    7     1      -0.5988030606E-01       5    8    1        -0.3294799032E+01      0.8000419397E+01
          0                 3           2             5    7     1       0.4077615140E-02       5    8    1         0.2306355309E+00      0.5599707921E+00
          0                 4           2             5    7     1      -0.1622521759E-03       5    8    1        -0.9433008690E-02      0.2289957557E-01
          0                 5           1             5    7     1       0.2000641424E-05       5    8    1         0.1195452808E-03      0.2901900410E-03

    ------------------------------------------------
       NWT REQUIRED            5 OUTER ITERATIONS 
       AND A TOTAL OF          9 INNER ITERATIONS.
    ------------------------------------------------

 NO OUTPUT CONTROL FOR STRESS PERIOD   45   TIME STEP   22
 
 SOLVING FOR HEAD 
                                                   Max.-Head-Change                         Max.-Flux-Residual
  Residual-Control   Outer-Iter.   Inner-Iter.     Column Row Layer    Maximum-Head-Change  Column Row Layer    Maximum-Flux-Residual          L2-NORM 
          0                 1           2             5    8     1       0.9787323994E-01       5    8    1         0.5299478608E+01      0.1327731250E+02
          0                 2           2             4    7     1      -0.2144412153E+00       5    8    1        -0.1159746123E+02      0.2833030227E+02
          0                 3           2             4    7     1       0.1460241814E-01       5    8    1         0.8117912357E+00      0.1983054524E+01
          0                 4           2             4    7     1      -0.5810449924E-03       5    8    1        -0.3320037023E-01      0.8110444340E-01
          0                 5           1             4    7     1       0.7164534989E-05       5    6    1         0.4206666788E-03      0.1027757408E-02

    ------------------------------------------------
       NWT REQUIRED            5 OUTER ITERATIONS 
       AND A TOTAL OF          9 INNER ITERATIONS.
    ------------------------------------------------

 NO OUTPUT CONTROL FOR STRESS PERIOD   45   TIME STEP   23
 
 SOLVING FOR HEAD 
                                                   Max.-Head-Change                         Max.-Flux-Residual
  Residual-Control   Outer-Iter.   Inner-Iter.     Column Row Layer    Maximum-Head-Change  Column Row Layer    Maximum-Flux-Residual          L2-NORM 
          0                 1           2             5    8     1       0.9995874795E-01       5    8    1         0.5413923787E+01      0.1350129557E+02
          0                 2           2             5    7     1      -0.5989401543E-01       5    8    1        -0.3292167831E+01      0.8000358368E+01
          0                 3           2             5    7     1       0.4078548441E-02       5    8    1         0.2304513474E+00      0.5599663334E+00
          0                 4           2             5    7     1      -0.1622893144E-03       5    8    1        -0.9425475567E-02      0.2289941669E-01
          0                 5           1             5    7     1       0.2001099564E-05       5    8    1         0.1194498086E-03      0.2901522049E-03

    ------------------------------------------------
       NWT REQUIRED            5 OUTER ITERATIONS 
       AND A TOTAL OF          9 INNER ITERATIONS.
    ------------------------------------------------

 NO OUTPUT CONTROL FOR STRESS PERIOD   45   TIME STEP   24
 
 SOLVING FOR HEAD 
                                                   Max.-Head-Change                         Max.-Flux-Residual
  Residual-Control   Outer-Iter.   Inner-Iter.     Column Row Layer    Maximum-Head-Change  Column Row Layer    Maximum-Flux-Residual          L2-NORM 
          0                 1           2             5    8     1       0.9746638662E-01       5    8    1         0.5275829266E+01      0.1325403571E+02
          0                 2           2             4    7     1      -0.2145258384E+00       5    8    1        -0.1159509929E+02      0.2833084561E+02
          0                 3           2             4    7     1       0.1460817901E-01       5    8    1         0.8116231806E+00      0.1983088693E+01
          0                 4           2             4    7     1      -0.5812742304E-03       5    8    1        -0.3319323258E-01      0.8110550440E-01
          0                 5           1             4    7     1       0.7167361684E-05       5    6    1         0.4205621317E-03      0.1027753539E-02

    ------------------------------------------------
       NWT REQUIRED            5 OUTER ITERATIONS 
       AND A TOTAL OF          9 INNER ITERATIONS.
    ------------------------------------------------

 NO OUTPUT CONTROL FOR STRESS PERIOD   45   TIME STEP   25
 
 SOLVING FOR HEAD 
                                                   Max.-Head-Change                         Max.-Flux-Residual
  Residual-Control   Outer-Iter.   Inner-Iter.     Column Row Layer    Maximum-Head-Change  Column Row Layer    Maximum-Flux-Residual          L2-NORM 
          0                 1           2             5    8     1       0.9959618101E-01       5    8    1         0.5392753916E+01      0.1348046612E+02
          0                 2           2             5    7     1      -0.5990867359E-01       5    8    1        -0.3290049783E+01      0.8000727449E+01
          0                 3           2             5    7     1       0.4079546379E-02       5    8    1         0.2303030839E+00      0.5599918036E+00
          0                 4           2             5    7     1      -0.1623290242E-03       5    8    1        -0.9419411572E-02      0.2290040788E-01
          0                 5           1             5    7     1       0.2001589405E-05       5    8    1         0.1193729845E-03      0.2901984857E-03

    ------------------------------------------------
       NWT REQUIRED            5 OUTER ITERATIONS 
       AND A TOTAL OF          9 INNER ITERATIONS.
    ------------------------------------------------

 NO OUTPUT CONTROL FOR STRESS PERIOD   45   TIME STEP   26
 
 SOLVING FOR HEAD 
                                                   Max.-Head-Change                         Max.-Flux-Residual
  Residual-Control   Outer-Iter.   Inner-Iter.     Column Row Layer    Maximum-Head-Change  Column Row Layer    Maximum-Flux-Residual          L2-NORM 
          0                 1           2             5    8     1       0.9714531786E-01       5    8    1         0.5256983426E+01      0.1323739907E+02
          0                 2           2             4    7     1      -0.2146041088E+00       5    8    1        -0.1159321196E+02      0.2833174685E+02
          0                 3           2             4    7     1       0.1461350745E-01       5    8    1         0.8114886049E+00      0.1983148331E+01
          0                 4           2             4    7     1      -0.5814862609E-03       5    8    1        -0.3318748931E-01      0.8110765191E-01
          0                 5           1             4    7     1       0.7169975774E-05       5    6    1         0.4204754821E-03      0.1027773804E-02

    ------------------------------------------------
       NWT REQUIRED            5 OUTER ITERATIONS 
       AND A TOTAL OF          9 INNER ITERATIONS.
    ------------------------------------------------

 NO OUTPUT CONTROL FOR STRESS PERIOD   45   TIME STEP   27
 
 SOLVING FOR HEAD 
                                                   Max.-Head-Change                         Max.-Flux-Residual
  Residual-Control   Outer-Iter.   Inner-Iter.     Column Row Layer    Maximum-Head-Change  Column Row Layer    Maximum-Flux-Residual          L2-NORM 
          0                 1           2             5    8     1       0.9931319040E-01       5    8    1         0.5376039488E+01      0.1346587886E+02
          0                 2           2             5    7     1      -0.5992436827E-01       5    8    1        -0.3288379656E+01      0.8001486676E+01
          0                 3           2             5    7     1       0.4080614921E-02       5    8    1         0.2301861743E+00      0.5600447749E+00
          0                 4           2             5    7     1      -0.1623715432E-03       5    8    1        -0.9414629972E-02      0.2290260353E-01
          0                 5           1             5    7     1       0.2002113411E-05       5    8    1         0.1193123724E-03      0.2901945639E-03

    ------------------------------------------------
       NWT REQUIRED            5 OUTER ITERATIONS 
       AND A TOTAL OF          9 INNER ITERATIONS.
    ------------------------------------------------

 NO OUTPUT CONTROL FOR STRESS PERIOD   45   TIME STEP   28
 
 SOLVING FOR HEAD 
                                                   Max.-Head-Change                         Max.-Flux-Residual
  Residual-Control   Outer-Iter.   Inner-Iter.     Column Row Layer    Maximum-Head-Change  Column Row Layer    Maximum-Flux-Residual          L2-NORM 
          0                 1           2             5    8     1       0.9689809077E-01       5    8    1         0.5242271390E+01      0.1322650135E+02
          0                 2           2             4    7     1      -0.2146769185E+00       5    8    1        -0.1159174374E+02      0.2833298343E+02
          0                 3           2             4    7     1       0.1461846418E-01       5    8    1         0.8113835866E+00      0.1983231819E+01
          0                 4           2             4    7     1      -0.5816835008E-03       5    8    1        -0.3318297660E-01      0.8111080038E-01
          0                 5           1             4    7     1       0.7172408176E-05       5    6    1         0.4204047277E-03      0.1027798013E-02

    ------------------------------------------------
       NWT REQUIRED            5 OUTER ITERATIONS 
       AND A TOTAL OF          9 INNER ITERATIONS.
    ------------------------------------------------

 NO OUTPUT CONTROL FOR STRESS PERIOD   45   TIME STEP   29
 
 SOLVING FOR HEAD 
                                                   Max.-Head-Change                         Max.-Flux-Residual
  Residual-Control   Outer-Iter.   Inner-Iter.     Column Row Layer    Maximum-Head-Change  Column Row Layer    Maximum-Flux-Residual          L2-NORM 
          0                 1           2             5    8     1       0.9909874212E-01       5    8    1         0.5363161658E+01      0.1345668550E+02
          0                 2           2             5    7     1      -0.5994098379E-01       5    8    1        -0.3287090798E+01      0.8002571314E+01
          0                 3           2             5    7     1       0.4081746190E-02       5    8    1         0.2300959532E+00      0.5601204413E+00
          0                 4           2             5    7     1      -0.1624165587E-03       5    8    1        -0.9410939929E-02      0.2290560250E-01
          0                 5           1             5    7     1       0.2002668444E-05       5    8    1         0.1192656050E-03      0.2902411193E-03

    ------------------------------------------------
       NWT REQUIRED            5 OUTER ITERATIONS 
       AND A TOTAL OF          9 INNER ITERATIONS.
    ------------------------------------------------

 NO OUTPUT CONTROL FOR STRESS PERIOD   45   TIME STEP   30



 STREAM LISTING     PERIOD     45   STEP       30

 LAYER ROW COL. STREAM  RCH.  FLOW INTO     FLOW TO   FLOW OUT OF   OVRLND.     DIRECT     STREAM       STREAM     STREAM     STREAM   STREAMBED  STREAMBED
                SEG.NO.  NO.  STRM. RCH.    AQUIFER    STRM. RCH.    RUNOFF     PRECIP       ET          HEAD       DEPTH      WIDTH   CONDCTNC.   GRADIENT

   1    1    1     1     1    1.3875E+01  1.7894E-01   1.3696E+01  0.000E+00  0.000E+00  0.000E+00  1.09404E+03  9.876E-01  9.972E+00  4.487E-02  1.329E+00
   1    2    2     1     2    1.3696E+01  2.7573E-01   1.3420E+01  0.000E+00  0.000E+00  0.000E+00  1.08904E+03  9.829E-01  9.890E+00  6.923E-02  1.328E+00
   1    3    3     1     3    1.3420E+01  2.3380E-01   1.3186E+01  0.000E+00  0.000E+00  0.000E+00  1.08340E+03  9.775E-01  9.797E+00  5.878E-02  1.326E+00
   1    3    4     1     4    1.3186E+01  2.1419E-01   1.2972E+01  0.000E+00  0.000E+00  0.000E+00  1.07838E+03  9.727E-01  9.714E+00  5.391E-02  1.324E+00
   1    4    5     2     1    1.0972E+01  2.9101E-01   1.0681E+01  0.000E+00  0.000E+00  0.000E+00  1.07266E+03  7.309E-01  1.200E+01  7.800E-02  1.244E+00
   1    5    6     2     2    1.0681E+01  2.2322E-01   1.0458E+01  0.000E+00  0.000E+00  0.000E+00  1.06723E+03  7.204E-01  1.200E+01  6.000E-02  1.240E+00
   1    6    6     2     3    1.0458E+01  2.2267E-01   1.0235E+01  0.000E+00  0.000E+00  0.000E+00  1.06250E+03  7.112E-01  1.200E+01  6.000E-02  1.237E+00
   1    7    6     2     4    1.0235E+01  2.2212E-01   1.0013E+01  0.000E+00  0.000E+00  0.000E+00  1.05778E+03  7.020E-01  1.200E+01  6.000E-02  1.234E+00
   1    8    6     2     5    1.0013E+01  2.2157E-01   9.7913E+00  0.000E+00  0.000E+00  0.000E+00  1.05305E+03  6.928E-01  1.200E+01  6.000E-02  1.231E+00
   1    3    5     3     1    2.0000E+00  2.8252E-01   1.7175E+00  0.000E+00  0.000E+00  0.000E+00  1.07555E+03  1.909E+00  9.636E+00  7.227E-02  1.955E+00
   1    3    6     3     2    1.7175E+00  2.4905E-01   1.4684E+00  0.000E+00  0.000E+00  0.000E+00  1.07264E+03  1.727E+00  8.909E+00  6.682E-02  1.864E+00
   1    3    7     3     3    1.4684E+00  1.9718E-01   1.2712E+00  0.000E+00  0.000E+00  0.000E+00  1.06987E+03  1.555E+00  8.218E+00  5.547E-02  1.777E+00
   1    4    8     3     4    1.2712E+00  2.2567E-01   1.0456E+00  0.000E+00  0.000E+00  0.000E+00  1.06682E+03  1.364E+00  7.455E+00  6.709E-02  1.682E+00
   1    5    8     3     5    1.0456E+00  1.5790E-01   8.8768E-01  0.000E+00  0.000E+00  0.000E+00  1.06362E+03  1.164E+00  6.655E+00  4.991E-02  1.582E+00
   1    6    8     3     6    8.8768E-01  5.5980E-02   8.3170E-01  0.000E+00  0.000E+00  0.000E+00  1.06158E+03  1.036E+00  6.145E+00  1.844E-02  1.518E+00
   1    5   10     4     1    1.0000E+01  9.0919E-02   9.9091E+00  0.000E+00  0.000E+00  0.000E+00  1.07836E+03  6.368E-01  1.000E+01  2.500E-02  1.212E+00
   1    5    9     4     2    9.9091E+00  1.8158E-01   9.7275E+00  0.000E+00  0.000E+00  0.000E+00  1.07154E+03  6.315E-01  1.000E+01  5.000E-02  1.211E+00
   1    6    8     4     3    9.7275E+00  1.2689E-01   9.6006E+00  0.000E+00  0.000E+00  0.000E+00  1.06381E+03  6.256E-01  1.000E+01  3.500E-02  1.209E+00
   1    6    8     5     1    1.0432E+01  2.2686E-01   1.0205E+01  0.000E+00  0.000E+00  0.000E+00  1.05868E+03  6.790E-01  1.542E+01  6.166E-02  1.226E+00
   1    7    7     5     2    1.0205E+01  2.7894E-01   9.9265E+00  0.000E+00  0.000E+00  0.000E+00  1.05417E+03  6.732E-01  1.519E+01  7.594E-02  1.224E+00
   1    8    7     5     3    9.9265E+00  1.9221E-01   9.7343E+00  0.000E+00  0.000E+00  0.000E+00  1.04992E+03  6.676E-01  1.497E+01  5.241E-02  1.223E+00
   1    8    6     5     4    9.7343E+00  1.3577E-01   9.5985E+00  0.000E+00  0.000E+00  0.000E+00  1.04691E+03  6.637E-01  1.482E+01  3.706E-02  1.221E+00
   1    9    6     6     1    9.5985E+00  2.2097E-01   9.3776E+00  0.000E+00  0.000E+00  0.000E+00  1.04341E+03  6.828E-01  1.200E+01  6.000E-02  1.228E+00
   1   10    7     6     2    9.3776E+00  2.2039E-01   9.1572E+00  0.000E+00  0.000E+00  0.000E+00  1.03885E+03  6.732E-01  1.200E+01  6.000E-02  1.224E+00
   1   11    7     6     3    9.1572E+00  2.1981E-01   8.9374E+00  0.000E+00  0.000E+00  0.000E+00  1.03430E+03  6.636E-01  1.200E+01  6.000E-02  1.221E+00
   1   12    7     6     4    8.9374E+00  2.1923E-01   8.7181E+00  0.000E+00  0.000E+00  0.000E+00  1.02974E+03  6.539E-01  1.200E+01  6.000E-02  1.218E+00
   1   13    7     6     5    8.7181E+00  2.6755E-03   8.7155E+00  0.000E+00  0.000E+00  0.000E+00  1.02656E+03  6.489E-01  1.200E+01  2.400E-02  3.716E-02
   1   14    9     7     1    1.5000E+02  1.4048E+00   1.4860E+02  0.000E+00  0.000E+00  0.000E+00  1.03987E+03  2.288E+00  5.529E+01  5.593E-01  8.372E-01
   1   13    8     7     2    1.4860E+02  2.0435E+00   1.4655E+02  0.000E+00  0.000E+00  0.000E+00  1.03478E+03  2.278E+00  5.525E+01  6.147E-01  1.108E+00
   1   13    7     7     3    1.4655E+02  1.8095E+00   1.4474E+02  0.000E+00  0.000E+00  0.000E+00  1.02969E+03  2.268E+00  5.521E+01  5.583E-01  1.080E+00
   1   13    6     8     1    1.5346E+02  1.1536E+00   1.5230E+02  0.000E+00  0.000E+00  0.000E+00  1.02471E+03  2.837E+00  4.114E+01  4.192E-01  9.173E-01
   1   13    5     8     2    1.5230E+02  4.0015E-01   1.5190E+02  0.000E+00  0.000E+00  0.000E+00  1.01846E+03  2.832E+00  4.106E+01  4.184E-01  3.188E-01
   1   13    4     8     3    1.5190E+02 -1.6522E+00   1.5356E+02  0.000E+00  0.000E+00  0.000E+00  1.01221E+03  2.836E+00  4.112E+01  4.190E+00 -1.314E-01
   1   13    3     8     4    1.5356E+02 -3.2493E+00   1.5681E+02  0.000E+00  0.000E+00  0.000E+00  1.00598E+03  2.853E+00  4.137E+01  4.216E+00 -2.569E-01
   1   13    2     8     5    1.5681E+02 -2.4801E+00   1.5929E+02  0.000E+00  0.000E+00  0.000E+00  9.99748E+02  2.873E+00  4.165E+01  4.245E+00 -1.948E-01
   1   13    1     8     6    1.5929E+02 -1.9606E+00   1.6125E+02  0.000E+00  0.000E+00  0.000E+00  9.94763E+02  2.888E+00  4.187E+01  2.560E+00 -2.553E-01
   1    8    6     9     1    9.7913E+00  0.0000E+00   9.7913E+00  0.000E+00  0.000E+00  0.000E+00  1.08099E+03  2.238E+00  4.000E+00  0.000E+00  1.746E+00
   1    8    5     9     2    9.7913E+00  0.0000E+00   9.7913E+00  0.000E+00  0.000E+00  0.000E+00  1.08049E+03  2.238E+00  4.000E+00  0.000E+00  1.746E+00





UNSATURATED ZONE PACKAGE VOLUMETRIC BUDGET FOR  TIME STEP    30 STRESS PERIOD   45
  ------------------------------------------------------------------------------



     CUMULATIVE VOLUMES      L**3       RATES FOR THIS TIME STEP      L**3/T
     ------------------                 ------------------------

           IN:                                      IN:
           ---                                      ---
        INFILTRATION =  2016665129.4717          INFILTRATION =          27.1437

          OUT:                                     OUT:
          ----                                     ----
              UZF ET =  1667409069.9468                UZF ET =          49.6308
        UZF RECHARGE =    65927686.2255          UZF RECHARGE =       0.0000E+00

            IN - OUT =   283328373.2995              IN - OUT =         -22.4871

          STORAGE:                                 STORAGE:
          --------                                 --------
      STORAGE CHANGE =   283330032.9111        STORAGE CHANGE =         -22.4871

 PERCENT DISCREPANCY IS DIFFERENCE BETWEEN IN-OUT MINUS CHANGE IN STORAGE
 DIVIDED BY THE AVERAGE OF IN AND OUT TIMES 100

 PERCENT DISCREPANCY =          -0.00     PERCENT DISCREPANCY =           0.00






1
  VOLUMETRIC BUDGET FOR AGRICULTURAL FIELDS AT  END OF TIME STEP   30, STRESS PERIOD  45
  ------------------------------------------------------------------------------

     CUMULATIVE VOLUMES      L**3       RATES FOR THIS TIME STEP      L**3/T
     ------------------                 ------------------------

           IN:                                      IN:
           ---                                      ---
               AG WELLS  =  1306633856.0000                 AG WELLS  =          16.5047
      DIVERSION SEGMENTS =   611882560.0000        DIVERSION SEGMENTS =           9.7913
           GW IRRIGATION =           0.0000             GW IRRIGATION =           0.0000
           SW IRRIGATION =           0.0000             SW IRRIGATION =           0.0000
        SYSTEM LOSSES GW =           0.0000          SYSTEM LOSSES GW =           0.0000
        SYSTEM LOSSES SW =           0.0000          SYSTEM LOSSES SW =           0.0000

                TOTAL IN =  1918516480.0000                  TOTAL IN =          26.2960

          OUT:                                     OUT:
          ----                                     ----
               AG WELLS  =           0.0000                 AG WELLS  =           0.0000
      DIVERSION SEGMENTS =           0.0000        DIVERSION SEGMENTS =           0.0000
           GW IRRIGATION =  1306633856.0000             GW IRRIGATION =          16.5047
           SW IRRIGATION =   611894144.0000             SW IRRIGATION =           9.7915
        SYSTEM LOSSES GW =           0.0000          SYSTEM LOSSES GW =           0.0000
        SYSTEM LOSSES SW =           0.0000          SYSTEM LOSSES SW =           0.0000

               TOTAL OUT =  1918528000.0000                 TOTAL OUT =          26.2962

                IN - OUT =      -11520.0000                  IN - OUT =      -1.9646E-04

     PERCENT DISCREPANCY =          -0.00         PERCENT DISCREPANCY =          -0.00



1
  VOLUMETRIC BUDGET FOR ENTIRE MODEL AT END OF TIME STEP   30, STRESS PERIOD  45
  ------------------------------------------------------------------------------

     CUMULATIVE VOLUMES      L**3       RATES FOR THIS TIME STEP      L**3/T
     ------------------                 ------------------------

           IN:                                      IN:
           ---                                      ---
             STORAGE     =  1811614336.0000               STORAGE     =          27.0225
       CONSTANT HEAD     =           0.0000         CONSTANT HEAD     =           0.0000
     HEAD DEP BOUNDS     =    33439306.0000       HEAD DEP BOUNDS     =           0.2905
      STREAM LEAKAGE     =  1392896000.0000        STREAM LEAKAGE     =          12.1793
        UZF RECHARGE     =    65927680.0000          UZF RECHARGE     =           0.0000
               GW ET     =           0.0000                 GW ET     =           0.0000
     SURFACE LEAKAGE     =           0.0000       SURFACE LEAKAGE     =           0.0000
           AG WELLS      =           0.0000             AG WELLS      =           0.0000

                TOTAL IN =  3303877376.0000                  TOTAL IN =          39.4922

          OUT:                                     OUT:
          ----                                     ----
             STORAGE     =   827524160.0000               STORAGE     =          13.3592
       CONSTANT HEAD     =           0.0000         CONSTANT HEAD     =           0.0000
     HEAD DEP BOUNDS     =    33344798.0000       HEAD DEP BOUNDS     =           0.2861
      STREAM LEAKAGE     =  1136394368.0000        STREAM LEAKAGE     =           9.3422
        UZF RECHARGE     =           0.0000          UZF RECHARGE     =           0.0000
               GW ET     =           0.0000                 GW ET     =           0.0000
     SURFACE LEAKAGE     =           0.0000       SURFACE LEAKAGE     =           0.0000
           AG WELLS      =  1306633856.0000             AG WELLS      =          16.5047

               TOTAL OUT =  3303897088.0000                 TOTAL OUT =          39.4922

                IN - OUT =      -19712.0000                  IN - OUT =       1.1444E-05

     PERCENT DISCREPANCY =          -0.00         PERCENT DISCREPANCY =           0.00






         TIME SUMMARY AT END OF TIME STEP   30 IN STRESS PERIOD   45
                    SECONDS     MINUTES      HOURS       DAYS        YEARS
                    -----------------------------------------------------------
   TIME STEP LENGTH  87667.      1461.1      24.352      1.0147     2.77799E-03
 STRESS PERIOD TIME 2.63000E+06  43833.      730.56      30.440     8.33397E-02
         TOTAL TIME 1.15805E+08 1.93009E+06  32168.      1340.3      3.6696    
1
1
                            STRESS PERIOD NO.   46, LENGTH =   2630000.    
                            -----------------------------------------------

                              NUMBER OF TIME STEPS =    30

                               MULTIPLIER FOR DELT =     1.000

                            INITIAL TIME STEP SIZE =   87666.66    

 REUSING NON-PARAMETER GHB CELLS FROM LAST STRESS PERIOD

      2 GHB CELLS

 REUSING STREAM SEGMENT DATA FROM LAST STRESS PERIOD



            AREAL INFILTRATION RATE
 READING ON UNIT   19 WITH FORMAT: (FREE)              

            1           2           3           4           5           6           7           8           9          10
 ........................................................................................................................
   1   1.0000E-10  2.0000E-10   0.000       0.000       0.000       0.000       0.000       0.000       0.000       0.000    
   2   2.0000E-10  1.0000E-10  2.0000E-10   0.000       0.000      8.0000E-10  8.0000E-10  5.0000E-10   0.000       0.000    
   3    0.000      5.0000E-10  1.0000E-10  1.0000E-10  8.0000E-10  8.0000E-10  5.0000E-10  5.0000E-10   0.000       0.000    
   4   8.0000E-10  5.0000E-10  1.0000E-10  1.0000E-10  1.0000E-10  1.0000E-10  1.0000E-10  1.0000E-10  2.0000E-10   0.000    
   5   8.0000E-10  5.0000E-10  1.0000E-10  1.0000E-10  1.0000E-10  1.0000E-10  1.0000E-10  1.0000E-10  1.0000E-10  1.0000E-10
   6   8.0000E-10  5.0000E-10  5.0000E-10  2.0000E-10  2.0000E-10  1.0000E-10  1.0000E-10  1.0000E-10  1.0000E-10  5.0000E-10
   7   8.0000E-10  5.0000E-10  5.0000E-10  2.0000E-10  2.0000E-10  1.0000E-10  1.0000E-10  2.0000E-10  2.0000E-10   0.000    
   8    0.000      5.0000E-10  5.0000E-10  2.0000E-10  2.0000E-10  1.0000E-10  1.0000E-10  2.0000E-10  5.0000E-10   0.000    
   9    0.000      5.0000E-10  5.0000E-10  2.0000E-10  2.0000E-10  1.0000E-10  1.0000E-10  2.0000E-10  5.0000E-10   0.000    
  10    0.000      5.0000E-10  5.0000E-10  2.0000E-10  2.0000E-10  1.0000E-10  1.0000E-10  2.0000E-10  5.0000E-10  8.0000E-10
  11    0.000      1.0000E-10  1.0000E-10  1.0000E-10  1.0000E-10  1.0000E-10  1.0000E-10  2.0000E-10  5.0000E-10   0.000    
  12   1.0000E-10  1.0000E-10  1.0000E-10  1.0000E-10  1.0000E-10  1.0000E-10  1.0000E-10  1.0000E-10  2.0000E-10   0.000    
  13   1.0000E-10  1.0000E-10  2.0000E-10  2.0000E-10  2.0000E-10  2.0000E-10  2.0000E-10  1.0000E-10  1.0000E-10   0.000    
  14    0.000      2.0000E-10  5.0000E-10  5.0000E-10  5.0000E-10  5.0000E-10  5.0000E-10  2.0000E-10  1.0000E-10   0.000    
  15    0.000       0.000      8.0000E-10  8.0000E-10  8.0000E-10  8.0000E-10   0.000       0.000       0.000       0.000    

                  ET RATE =  7.500000E-08

 USING ET EXTINCTION DEPTH FROM PREVIOUS STRESS PERIOD. CURRENT PERIOD IS:      46

 USING EXTINCTION WATER CONTENT FROM PREVIOUS STRESS PERIOD. CURRENT PERIOD IS:      46

 USING AIR ENTRY PRESSURE FROM PREVIOUS STRESS PERIOD. CURRENT PERIOD IS:      46

 USING ROOT PRESSURE HEAD FROM PREVIOUS STRESS PERIOD. CURRENT PERIOD IS:      46

 USING ROOT ACTIVITY FROM PREVIOUS STRESS PERIOD. CURRENT PERIOD IS:      46

 PROCESSING AG STRESS PERIOD DATA

 READING AG STRESS PERIOD DATA

 READING IRRIGATION SEGMENT

 READING IRRIGATION WELL

 READING SUPPLEMENTAL WELL

 END PROCESSING AG STRESS PERIOD DATA OPTIONS
 
 SOLVING FOR HEAD 
                                                   Max.-Head-Change                         Max.-Flux-Residual
  Residual-Control   Outer-Iter.   Inner-Iter.     Column Row Layer    Maximum-Head-Change  Column Row Layer    Maximum-Flux-Residual          L2-NORM 
          0                 1           2             5    8     1       0.9671449321E-01       5    8    1         0.5231120907E+01      0.1322056972E+02
          0                 2           2             5    8     1      -0.1121867538E-01       5    8    1        -0.6228095254E+00      0.1550426425E+01
          0                 3           2             5    7     1       0.2475167704E-02       5    8    1         0.1400314796E+00      0.3410430796E+00
          0                 4           2             5    7     1      -0.1136449095E-03       5    8    1        -0.6595457424E-02      0.1604880714E-01
          0                 5           1             4    7     1      -0.1930338842E-04       4    7    1        -0.1094494652E-02      0.2873584387E-02

    ------------------------------------------------
       NWT REQUIRED            5 OUTER ITERATIONS 
       AND A TOTAL OF          9 INNER ITERATIONS.
    ------------------------------------------------

 NO OUTPUT CONTROL FOR STRESS PERIOD   46   TIME STEP    1
 
 SOLVING FOR HEAD 
                                                   Max.-Head-Change                         Max.-Flux-Residual
  Residual-Control   Outer-Iter.   Inner-Iter.     Column Row Layer    Maximum-Head-Change  Column Row Layer    Maximum-Flux-Residual          L2-NORM 
          0                 1           2             5    6     1       0.9307833573E-01       5    8    1         0.5025898752E+01      0.1284628903E+02
          0                 2           2             5    7     1      -0.4780670180E-01       5    8    1        -0.2610694079E+01      0.6383764422E+01
          0                 3           2             5    7     1       0.3255451268E-02       5    8    1         0.1827484287E+00      0.4467906528E+00
          0                 4           2             5    7     1      -0.1295374883E-03       5    8    1        -0.7474422231E-02      0.1826955133E-01
          0                 5           1             5    7     1       0.1597254941E-05       5    8    1         0.9472395186E-04      0.2314747821E-03

    ------------------------------------------------
       NWT REQUIRED            5 OUTER ITERATIONS 
       AND A TOTAL OF          9 INNER ITERATIONS.
    ------------------------------------------------

 NO OUTPUT CONTROL FOR STRESS PERIOD   46   TIME STEP    2
 
 SOLVING FOR HEAD 
                                                   Max.-Head-Change                         Max.-Flux-Residual
  Residual-Control   Outer-Iter.   Inner-Iter.     Column Row Layer    Maximum-Head-Change  Column Row Layer    Maximum-Flux-Residual          L2-NORM 
          0                 1           2             5    6     1       0.9081342809E-01       5    6    1         0.4896139683E+01      0.1260845888E+02
          0                 2           2             5    6     1      -0.8833560382E-02       5    6    1        -0.4896063608E+00      0.1260817301E+01
          0                 3           2             5    6     1       0.6015337876E-03       5    6    1         0.3427253204E-01      0.8825646386E-01
          0                 4           1             5    6     1      -0.2393553744E-04       5    6    1        -0.1401748176E-02      0.3609658043E-02

    ------------------------------------------------
       NWT REQUIRED            4 OUTER ITERATIONS 
       AND A TOTAL OF          7 INNER ITERATIONS.
    ------------------------------------------------

 NO OUTPUT CONTROL FOR STRESS PERIOD   46   TIME STEP    3
 
 SOLVING FOR HEAD 
                                                   Max.-Head-Change                         Max.-Flux-Residual
  Residual-Control   Outer-Iter.   Inner-Iter.     Column Row Layer    Maximum-Head-Change  Column Row Layer    Maximum-Flux-Residual          L2-NORM 
          0                 1           2             5    7     1       0.8874549361E-01       5    6    1         0.4719599847E+01      0.1226731750E+02
          0                 2           2             4    7     1      -0.6088788526E-01       5    6    1        -0.3288683177E+01      0.8054808825E+01
          0                 3           2             4    7     1       0.4146222015E-02       5    6    1         0.2302073781E+00      0.5638179280E+00
          0                 4           2             4    7     1      -0.1649821343E-03       5    6    1        -0.9415497426E-02      0.2305925940E-01
          0                 5           1             4    7     1       0.2034301098E-05       5    6    1         0.1193233677E-03      0.2959574251E-03

    ------------------------------------------------
       NWT REQUIRED            5 OUTER ITERATIONS 
       AND A TOTAL OF          9 INNER ITERATIONS.
    ------------------------------------------------

 NO OUTPUT CONTROL FOR STRESS PERIOD   46   TIME STEP    4
 
 SOLVING FOR HEAD 
                                                   Max.-Head-Change                         Max.-Flux-Residual
  Residual-Control   Outer-Iter.   Inner-Iter.     Column Row Layer    Maximum-Head-Change  Column Row Layer    Maximum-Flux-Residual          L2-NORM 
          0                 1           2             5    7     1       0.8778605311E-01       5    7    1         0.4652975862E+01      0.1209105329E+02
          0                 2           2             5    7     1      -0.8539152245E-02       5    7    1        -0.4652951585E+00      0.1209084310E+01
          0                 3           2             5    7     1       0.5814849723E-03       5    7    1         0.3257069814E-01      0.8463548891E-01
          0                 4           1             5    7     1      -0.2313783591E-04       5    7    1        -0.1332143303E-02      0.3461562163E-02

    ------------------------------------------------
       NWT REQUIRED            4 OUTER ITERATIONS 
       AND A TOTAL OF          7 INNER ITERATIONS.
    ------------------------------------------------

 NO OUTPUT CONTROL FOR STRESS PERIOD   46   TIME STEP    5
 
 SOLVING FOR HEAD 
                                                   Max.-Head-Change                         Max.-Flux-Residual
  Residual-Control   Outer-Iter.   Inner-Iter.     Column Row Layer    Maximum-Head-Change  Column Row Layer    Maximum-Flux-Residual          L2-NORM 
          0                 1           2             5    7     1       0.8606992285E-01       5    7    1         0.4562228837E+01      0.1177433482E+02
          0                 2           2             4    7     1      -0.6081264389E-01       5    7    1        -0.3272951400E+01      0.8012140267E+01
          0                 3           2             4    7     1       0.4141097153E-02       5    7    1         0.2291056501E+00      0.5608331143E+00
          0                 4           2             4    7     1      -0.1647782168E-03       5    7    1        -0.9370438996E-02      0.2293751547E-01
          0                 5           1             4    7     1       0.2031786701E-05       5    7    1         0.1187523426E-03      0.2907560493E-03

    ------------------------------------------------
       NWT REQUIRED            5 OUTER ITERATIONS 
       AND A TOTAL OF          9 INNER ITERATIONS.
    ------------------------------------------------

 NO OUTPUT CONTROL FOR STRESS PERIOD   46   TIME STEP    6
 
 SOLVING FOR HEAD 
                                                   Max.-Head-Change                         Max.-Flux-Residual
  Residual-Control   Outer-Iter.   Inner-Iter.     Column Row Layer    Maximum-Head-Change  Column Row Layer    Maximum-Flux-Residual          L2-NORM 
          0                 1           2             4    7     1       0.8524142502E-01       5    7    1         0.4513924560E+01      0.1161972561E+02
          0                 2           2             4    7     1      -0.8291666454E-02       5    7    1        -0.4513910031E+00      0.1161954851E+01
          0                 3           2             4    7     1       0.5646317442E-03       5    7    1         0.3159739763E-01      0.8133644180E-01
          0                 4           1             4    7     1      -0.2246722489E-04       5    7    1        -0.1292335304E-02      0.3326630516E-02

    ------------------------------------------------
       NWT REQUIRED            4 OUTER ITERATIONS 
       AND A TOTAL OF          7 INNER ITERATIONS.
    ------------------------------------------------

 NO OUTPUT CONTROL FOR STRESS PERIOD   46   TIME STEP    7
 
 SOLVING FOR HEAD 
                                                   Max.-Head-Change                         Max.-Flux-Residual
  Residual-Control   Outer-Iter.   Inner-Iter.     Column Row Layer    Maximum-Head-Change  Column Row Layer    Maximum-Flux-Residual          L2-NORM 
          0                 1           2             4    7     1       0.8463873676E-01       4    7    1         0.4428848861E+01      0.1132567207E+02
          0                 2           2             4    7     1      -0.6072395781E-01       4    7    1        -0.3259615938E+01      0.7972766612E+01
          0                 3           2             4    7     1       0.4135056941E-02       4    7    1         0.2281719642E+00      0.5580769002E+00
          0                 4           2             4    7     1      -0.1645378760E-03       4    7    1        -0.9332252136E-02      0.2282478002E-01
          0                 5           1             4    7     1       0.2028823124E-05       4    7    1         0.1182683814E-03      0.2893282514E-03

    ------------------------------------------------
       NWT REQUIRED            5 OUTER ITERATIONS 
       AND A TOTAL OF          9 INNER ITERATIONS.
    ------------------------------------------------

 NO OUTPUT CONTROL FOR STRESS PERIOD   46   TIME STEP    8
 
 SOLVING FOR HEAD 
                                                   Max.-Head-Change                         Max.-Flux-Residual
  Residual-Control   Outer-Iter.   Inner-Iter.     Column Row Layer    Maximum-Head-Change  Column Row Layer    Maximum-Flux-Residual          L2-NORM 
          0                 1           2             4    7     1       0.8427001008E-01       4    7    1         0.4410553583E+01      0.1118981828E+02
          0                 2           2             4    7     1      -0.8197188357E-02       4    7    1        -0.4410564294E+00      0.1118966797E+01
          0                 3           2             4    7     1       0.5581979982E-03       4    7    1         0.3087395325E-01      0.7832728463E-01
          0                 4           1             4    7     1      -0.2221122083E-04       4    7    1        -0.1262746495E-02      0.3203550674E-02

    ------------------------------------------------
       NWT REQUIRED            4 OUTER ITERATIONS 
       AND A TOTAL OF          7 INNER ITERATIONS.
    ------------------------------------------------

 NO OUTPUT CONTROL FOR STRESS PERIOD   46   TIME STEP    9
 
 SOLVING FOR HEAD 
                                                   Max.-Head-Change                         Max.-Flux-Residual
  Residual-Control   Outer-Iter.   Inner-Iter.     Column Row Layer    Maximum-Head-Change  Column Row Layer    Maximum-Flux-Residual          L2-NORM 
          0                 1           2             4    7     1       0.8361320733E-01       4    7    1         0.4378375252E+01      0.1091567059E+02
          0                 2           2             4    7     1      -0.6062418461E-01       4    7    1        -0.3254569410E+01      0.7936338914E+01
          0                 3           2             4    7     1       0.4128261897E-02       4    7    1         0.2278186512E+00      0.5555268649E+00
          0                 4           2             4    7     1      -0.1642674993E-03       4    7    1        -0.9317801881E-02      0.2272046524E-01
          0                 5           1             4    7     1       0.2025489227E-05       4    7    1         0.1180852644E-03      0.2880026019E-03

    ------------------------------------------------
       NWT REQUIRED            5 OUTER ITERATIONS 
       AND A TOTAL OF          9 INNER ITERATIONS.
    ------------------------------------------------

 NO OUTPUT CONTROL FOR STRESS PERIOD   46   TIME STEP   10
 
 SOLVING FOR HEAD 
                                                   Max.-Head-Change                         Max.-Flux-Residual
  Residual-Control   Outer-Iter.   Inner-Iter.     Column Row Layer    Maximum-Head-Change  Column Row Layer    Maximum-Flux-Residual          L2-NORM 
          0                 1           2             4    7     1       0.8319584294E-01       4    7    1         0.4357274299E+01      0.1079613009E+02
          0                 2           2             4    7     1      -0.8092712528E-02       4    7    1        -0.4357292554E+00      0.1079600233E+01
          0                 3           2             4    7     1       0.5510834707E-03       4    7    1         0.3050104377E-01      0.7557164935E-01
          0                 4           1             4    7     1      -0.2192812747E-04       4    7    1        -0.1247494501E-02      0.3090856854E-02

    ------------------------------------------------
       NWT REQUIRED            4 OUTER ITERATIONS 
       AND A TOTAL OF          7 INNER ITERATIONS.
    ------------------------------------------------

 NO OUTPUT CONTROL FOR STRESS PERIOD   46   TIME STEP   11
 
 SOLVING FOR HEAD 
                                                   Max.-Head-Change                         Max.-Flux-Residual
  Residual-Control   Outer-Iter.   Inner-Iter.     Column Row Layer    Maximum-Head-Change  Column Row Layer    Maximum-Flux-Residual          L2-NORM 
          0                 1           2             4    7     1       0.8249539320E-01       4    7    1         0.4322566863E+01      0.1053954734E+02
          0                 2           2             4    7     1      -0.6051541834E-01       4    7    1        -0.3248989236E+01      0.7902554876E+01
          0                 3           2             4    7     1       0.4120854601E-02       4    7    1         0.2274279923E+00      0.5531619295E+00
          0                 4           2             4    7     1      -0.1639727593E-03       4    7    1        -0.9301824106E-02      0.2262374996E-01
          0                 5           1             4    7     1       0.2021855129E-05       4    7    1         0.1178827822E-03      0.2867634187E-03

    ------------------------------------------------
       NWT REQUIRED            5 OUTER ITERATIONS 
       AND A TOTAL OF          9 INNER ITERATIONS.
    ------------------------------------------------

 NO OUTPUT CONTROL FOR STRESS PERIOD   46   TIME STEP   12
 
 SOLVING FOR HEAD 
                                                   Max.-Head-Change                         Max.-Flux-Residual
  Residual-Control   Outer-Iter.   Inner-Iter.     Column Row Layer    Maximum-Head-Change  Column Row Layer    Maximum-Flux-Residual          L2-NORM 
          0                 1           2             4    7     1       0.8203908482E-01       4    7    1         0.4299196520E+01      0.1043427373E+02
          0                 2           2             4    7     1      -0.7980200541E-02       4    7    1        -0.4299220781E+00      0.1043416430E+01
          0                 3           2             4    7     1       0.5434217332E-03       4    7    1         0.3009453551E-01      0.7303877655E-01
          0                 4           1             4    7     1      -0.2162326026E-04       4    7    1        -0.1230868319E-02      0.2987265516E-02

    ------------------------------------------------
       NWT REQUIRED            4 OUTER ITERATIONS 
       AND A TOTAL OF          7 INNER ITERATIONS.
    ------------------------------------------------

 NO OUTPUT CONTROL FOR STRESS PERIOD   46   TIME STEP   13
 
 SOLVING FOR HEAD 
                                                   Max.-Head-Change                         Max.-Flux-Residual
  Residual-Control   Outer-Iter.   Inner-Iter.     Column Row Layer    Maximum-Head-Change  Column Row Layer    Maximum-Flux-Residual          L2-NORM 
          0                 1           2             4    7     1       0.8130417632E-01       4    7    1         0.4262469008E+01      0.1019325192E+02
          0                 2           2             4    7     1      -0.6039949826E-01       4    7    1        -0.3242979976E+01      0.7871152391E+01
          0                 3           2             4    7     1       0.4112960282E-02       4    7    1         0.2270073054E+00      0.5509637076E+00
          0                 4           2             4    7     1      -0.1636586398E-03       4    7    1        -0.9284618182E-02      0.2253383578E-01
          0                 5           1             4    7     1       0.2017981768E-05       4    7    1         0.1176647199E-03      0.2856260929E-03

    ------------------------------------------------
       NWT REQUIRED            5 OUTER ITERATIONS 
       AND A TOTAL OF          9 INNER ITERATIONS.
    ------------------------------------------------

 NO OUTPUT CONTROL FOR STRESS PERIOD   46   TIME STEP   14
 
 SOLVING FOR HEAD 
                                                   Max.-Head-Change                         Max.-Flux-Residual
  Residual-Control   Outer-Iter.   Inner-Iter.     Column Row Layer    Maximum-Head-Change  Column Row Layer    Maximum-Flux-Residual          L2-NORM 
          0                 1           2             4    7     1       0.8081752765E-01       4    7    1         0.4237306321E+01      0.1010052027E+02
          0                 2           2             4    7     1      -0.7861383437E-02       4    7    1        -0.4237335295E+00      0.1010042614E+01
          0                 3           2             4    7     1       0.5353306596E-03       4    7    1         0.2966133246E-01      0.7070270205E-01
          0                 4           1             4    7     1      -0.2130130961E-04       4    7    1        -0.1213150327E-02      0.2891822058E-02

    ------------------------------------------------
       NWT REQUIRED            4 OUTER ITERATIONS 
       AND A TOTAL OF          7 INNER ITERATIONS.
    ------------------------------------------------

 NO OUTPUT CONTROL FOR STRESS PERIOD   46   TIME STEP   15
 
 SOLVING FOR HEAD 
                                                   Max.-Head-Change                         Max.-Flux-Residual
  Residual-Control   Outer-Iter.   Inner-Iter.     Column Row Layer    Maximum-Head-Change  Column Row Layer    Maximum-Flux-Residual          L2-NORM 
          0                 1           2             5    8     1       0.1973535412E+00       5    8    1         0.1078740118E+02      0.1419547078E+02
          0                 2           2             4    7     1      -0.6026911654E-01       4    7    1        -0.3236633384E+01      0.7431625268E+01
          0                 3           2             4    7     1       0.4101567229E-02       4    7    1         0.2265629417E+00      0.5480618756E+00
          0                 4           2             5    8     1      -0.3925169107E-03       5    8    1        -0.2198433920E-01      0.3013923357E-01
          0                 5           1             5    8     1      -0.4102886874E-04       5    8    1        -0.2329692951E-02      0.2342637960E-02

    ------------------------------------------------
       NWT REQUIRED            5 OUTER ITERATIONS 
       AND A TOTAL OF          9 INNER ITERATIONS.
    ------------------------------------------------

 NO OUTPUT CONTROL FOR STRESS PERIOD   46   TIME STEP   16
 
 SOLVING FOR HEAD 
                                                   Max.-Head-Change                         Max.-Flux-Residual
  Residual-Control   Outer-Iter.   Inner-Iter.     Column Row Layer    Maximum-Head-Change  Column Row Layer    Maximum-Flux-Residual          L2-NORM 
          0                 1           2             4    7     1       0.7966853030E-01       4    7    1         0.4175891183E+01      0.9712134824E+01
          0                 2           2             4    7     1      -0.7745592416E-02       4    7    1        -0.4175918530E+00      0.9591786663E+00
          0                 3           2             4    7     1       0.5277566487E-03       4    7    1         0.2923141274E-01      0.6744110835E-01
          0                 4           1             5    8     1       0.2804037413E-04       5    8    1         0.1577136658E-02      0.3072563485E-02

    ------------------------------------------------
       NWT REQUIRED            4 OUTER ITERATIONS 
       AND A TOTAL OF          7 INNER ITERATIONS.
    ------------------------------------------------

 NO OUTPUT CONTROL FOR STRESS PERIOD   46   TIME STEP   17
 
 SOLVING FOR HEAD 
                                                   Max.-Head-Change                         Max.-Flux-Residual
  Residual-Control   Outer-Iter.   Inner-Iter.     Column Row Layer    Maximum-Head-Change  Column Row Layer    Maximum-Flux-Residual          L2-NORM 
          0                 1           2             4    7     1       0.7894310523E-01       4    7    1         0.4139541907E+01      0.9498876885E+01
          0                 2           2             4    7     1      -0.6016583866E-01       4    7    1        -0.3230687522E+01      0.7607565664E+01
          0                 3           2             5    8     1      -0.4912828506E-02       5    8    1        -0.2853746763E+00      0.5767634544E+00
          0                 4           2             5    8     1      -0.5135691413E-03       5    8    1        -0.2885237628E-01      0.3545636332E-01
          0                 5           1             5    8     1      -0.5368206910E-04       5    8    1        -0.3047121679E-02      0.3056672550E-02

    ------------------------------------------------
       NWT REQUIRED            5 OUTER ITERATIONS 
       AND A TOTAL OF          9 INNER ITERATIONS.
    ------------------------------------------------

 NO OUTPUT CONTROL FOR STRESS PERIOD   46   TIME STEP   18
 
 SOLVING FOR HEAD 
                                                   Max.-Head-Change                         Max.-Flux-Residual
  Residual-Control   Outer-Iter.   Inner-Iter.     Column Row Layer    Maximum-Head-Change  Column Row Layer    Maximum-Flux-Residual          L2-NORM 
          0                 1           2             4    7     1       0.7846004907E-01       4    7    1         0.4114647345E+01      0.9429295637E+01
          0                 2           2             4    7     1      -0.7628166554E-02       4    7    1        -0.4114678890E+00      0.9313242756E+00
          0                 3           2             4    7     1       0.5197510315E-03       4    7    1         0.2880273139E-01      0.6547899400E-01
          0                 4           1             5    8     1       0.2719539623E-04       5    8    1         0.1529884851E-02      0.2982671756E-02

    ------------------------------------------------
       NWT REQUIRED            4 OUTER ITERATIONS 
       AND A TOTAL OF          7 INNER ITERATIONS.
    ------------------------------------------------

 NO OUTPUT CONTROL FOR STRESS PERIOD   46   TIME STEP   19
 
 SOLVING FOR HEAD 
                                                   Max.-Head-Change                         Max.-Flux-Residual
  Residual-Control   Outer-Iter.   Inner-Iter.     Column Row Layer    Maximum-Head-Change  Column Row Layer    Maximum-Flux-Residual          L2-NORM 
          0                 1           2             4    7     1       0.7770899962E-01       4    7    1         0.4076747920E+01      0.9226862235E+01
          0                 2           2             4    7     1      -0.6004584315E-01       4    7    1        -0.3224408481E+01      0.7587827994E+01
          0                 3           2             5    8     1      -0.4925820868E-02       5    8    1        -0.2860989922E+00      0.5756882025E+00
          0                 4           2             5    8     1      -0.5149257707E-03       5    8    1        -0.2892955670E-01      0.3547996160E-01
          0                 5           1             5    8     1      -0.5382371276E-04       5    8    1        -0.3055212467E-02      0.3064647821E-02

    ------------------------------------------------
       NWT REQUIRED            5 OUTER ITERATIONS 
       AND A TOTAL OF          9 INNER ITERATIONS.
    ------------------------------------------------

 NO OUTPUT CONTROL FOR STRESS PERIOD   46   TIME STEP   20
 
 SOLVING FOR HEAD 
                                                   Max.-Head-Change                         Max.-Flux-Residual
  Residual-Control   Outer-Iter.   Inner-Iter.     Column Row Layer    Maximum-Head-Change  Column Row Layer    Maximum-Flux-Residual          L2-NORM 
          0                 1           2             4    7     1       0.7720431284E-01       4    7    1         0.4050527459E+01      0.9165861372E+01
          0                 2           2             4    7     1      -0.7506131937E-02       4    7    1        -0.4050562130E+00      0.9053605112E+00
          0                 3           2             4    7     1       0.5114324062E-03       4    7    1         0.2835391117E-01      0.6365075092E-01
          0                 4           1             5    8     1       0.2642492278E-04       5    8    1         0.1486774676E-02      0.2899253540E-02

    ------------------------------------------------
       NWT REQUIRED            4 OUTER ITERATIONS 
       AND A TOTAL OF          7 INNER ITERATIONS.
    ------------------------------------------------

 NO OUTPUT CONTROL FOR STRESS PERIOD   46   TIME STEP   21
 
 SOLVING FOR HEAD 
                                                   Max.-Head-Change                         Max.-Flux-Residual
  Residual-Control   Outer-Iter.   Inner-Iter.     Column Row Layer    Maximum-Head-Change  Column Row Layer    Maximum-Flux-Residual          L2-NORM 
          0                 1           2             4    7     1       0.7643508689E-01       4    7    1         0.4011497175E+01      0.8973183448E+01
          0                 2           2             4    7     1      -0.5992195678E-01       4    7    1        -0.3217883668E+01      0.7569212762E+01
          0                 3           2             5    8     1      -0.4937681971E-02       5    8    1        -0.2867597673E+00      0.5746674017E+00
          0                 4           2             5    8     1      -0.3850175918E-03       5    8    1        -0.2156692452E-01      0.2974143648E-01
          0                 5           1             5    8     1       0.2622575476E-04       5    8    1         0.1526653799E-02      0.1546266336E-02

    ------------------------------------------------
       NWT REQUIRED            5 OUTER ITERATIONS 
       AND A TOTAL OF          9 INNER ITERATIONS.
    ------------------------------------------------

 NO OUTPUT CONTROL FOR STRESS PERIOD   46   TIME STEP   22
 
 SOLVING FOR HEAD 
                                                   Max.-Head-Change                         Max.-Flux-Residual
  Residual-Control   Outer-Iter.   Inner-Iter.     Column Row Layer    Maximum-Head-Change  Column Row Layer    Maximum-Flux-Residual          L2-NORM 
          0                 1           2             4    7     1       0.7591563591E-01       4    7    1         0.3984334997E+01      0.8918250165E+01
          0                 2           2             4    7     1      -0.7380933330E-02       4    7    1        -0.3984371915E+00      0.8794175542E+00
          0                 3           2             4    7     1       0.5028908994E-03       4    7    1         0.2789057758E-01      0.6180217068E-01
          0                 4           1             5    8     1       0.2498505802E-04       5    8    1         0.1406783954E-02      0.2801302541E-02

    ------------------------------------------------
       NWT REQUIRED            4 OUTER ITERATIONS 
       AND A TOTAL OF          7 INNER ITERATIONS.
    ------------------------------------------------

 NO OUTPUT CONTROL FOR STRESS PERIOD   46   TIME STEP   23
 
 SOLVING FOR HEAD 
                                                   Max.-Head-Change                         Max.-Flux-Residual
  Residual-Control   Outer-Iter.   Inner-Iter.     Column Row Layer    Maximum-Head-Change  Column Row Layer    Maximum-Flux-Residual          L2-NORM 
          0                 1           2             4    7     1       0.7513459524E-01       4    7    1         0.3944535787E+01      0.8736021303E+01
          0                 2           2             4    7     1      -0.5979546900E-01       4    7    1        -0.3211187712E+01      0.7551628941E+01
          0                 3           2             5    8     1      -0.4948520219E-02       5    8    1        -0.2873646156E+00      0.5736937007E+00
          0                 4           2             4    7     1      -0.1620766846E-03       5    7    1        -0.9217736312E-02      0.2165474875E-01
          0                 5           1             5    8     1       0.8987626490E-05       5    8    1         0.5212290710E-03      0.5800900027E-03

    ------------------------------------------------
       NWT REQUIRED            5 OUTER ITERATIONS 
       AND A TOTAL OF          9 INNER ITERATIONS.
    ------------------------------------------------

 NO OUTPUT CONTROL FOR STRESS PERIOD   46   TIME STEP   24
 
 SOLVING FOR HEAD 
                                                   Max.-Head-Change                         Max.-Flux-Residual
  Residual-Control   Outer-Iter.   Inner-Iter.     Column Row Layer    Maximum-Head-Change  Column Row Layer    Maximum-Flux-Residual          L2-NORM 
          0                 1           2             4    7     1       0.7460648041E-01       4    7    1         0.3916773234E+01      0.8687919339E+01
          0                 2           2             4    7     1      -0.7253771153E-02       4    7    1        -0.3916811688E+00      0.8536276341E+00
          0                 3           2             4    7     1       0.4942090918E-03       4    7    1         0.2741765459E-01      0.5994743859E-01
          0                 4           1             5    8     1       0.2295156169E-04       5    8    1         0.1294085162E-02      0.2691744754E-02

    ------------------------------------------------
       NWT REQUIRED            4 OUTER ITERATIONS 
       AND A TOTAL OF          7 INNER ITERATIONS.
    ------------------------------------------------

 NO OUTPUT CONTROL FOR STRESS PERIOD   46   TIME STEP   25
 
 SOLVING FOR HEAD 
                                                   Max.-Head-Change                         Max.-Flux-Residual
  Residual-Control   Outer-Iter.   Inner-Iter.     Column Row Layer    Maximum-Head-Change  Column Row Layer    Maximum-Flux-Residual          L2-NORM 
          0                 1           2             4    7     1       0.7381898635E-01       4    7    1         0.3876510586E+01      0.8513796491E+01
          0                 2           2             4    7     1      -0.5966749725E-01       4    7    1        -0.3204385312E+01      0.7535000977E+01
          0                 3           2             5    8     1      -0.4958446402E-02       5    8    1        -0.2879180730E+00      0.5727739666E+00
          0                 4           2             4    7     1      -0.1616394738E-03       5    7    1        -0.9189556945E-02      0.2120818679E-01
          0                 5           1             5    8     1      -0.3865165910E-05       5    8    1        -0.2346672748E-03      0.3516106917E-03

    ------------------------------------------------
       NWT REQUIRED            5 OUTER ITERATIONS 
       AND A TOTAL OF          9 INNER ITERATIONS.
    ------------------------------------------------

 NO OUTPUT CONTROL FOR STRESS PERIOD   46   TIME STEP   26
 
 SOLVING FOR HEAD 
                                                   Max.-Head-Change                         Max.-Flux-Residual
  Residual-Control   Outer-Iter.   Inner-Iter.     Column Row Layer    Maximum-Head-Change  Column Row Layer    Maximum-Flux-Residual          L2-NORM 
          0                 1           2             4    7     1       0.7328702666E-01       4    7    1         0.3848420663E+01      0.8471880460E+01
          0                 2           2             4    7     1      -0.7125591330E-02       4    7    1        -0.3848460079E+00      0.8296334603E+00
          0                 3           2             4    7     1       0.4854598758E-03       4    7    1         0.2693919243E-01      0.5822593226E-01
          0                 4           1             5    8     1       0.2108873177E-04       5    8    1         0.1190824053E-02      0.2591574140E-02

    ------------------------------------------------
       NWT REQUIRED            4 OUTER ITERATIONS 
       AND A TOTAL OF          7 INNER ITERATIONS.
    ------------------------------------------------

 NO OUTPUT CONTROL FOR STRESS PERIOD   46   TIME STEP   27
 
 SOLVING FOR HEAD 
                                                   Max.-Head-Change                         Max.-Flux-Residual
  Residual-Control   Outer-Iter.   Inner-Iter.     Column Row Layer    Maximum-Head-Change  Column Row Layer    Maximum-Flux-Residual          L2-NORM 
          0                 1           2             4    7     1       0.7249750279E-01       4    7    1         0.3807945070E+01      0.8305119484E+01
          0                 2           2             4    7     1      -0.5953894269E-01       4    7    1        -0.3197528830E+01      0.7519259058E+01
          0                 3           2             5    8     1      -0.4967557594E-02       5    8    1        -0.2884256343E+00      0.5718967675E+00
          0                 4           2             5    8     1       0.3040743189E-03       5    8    1         0.1800019232E-01      0.2713630481E-01
          0                 5           1             5    8     1      -0.1210228009E-04       5    8    1        -0.7283630898E-03      0.7754961301E-03

    ------------------------------------------------
       NWT REQUIRED            5 OUTER ITERATIONS 
       AND A TOTAL OF          9 INNER ITERATIONS.
    ------------------------------------------------

 NO OUTPUT CONTROL FOR STRESS PERIOD   46   TIME STEP   28
 
 SOLVING FOR HEAD 
                                                   Max.-Head-Change                         Max.-Flux-Residual
  Residual-Control   Outer-Iter.   Inner-Iter.     Column Row Layer    Maximum-Head-Change  Column Row Layer    Maximum-Flux-Residual          L2-NORM 
          0                 1           2             4    7     1       0.7196598125E-01       4    7    1         0.3779770863E+01      0.8268824447E+01
          0                 2           2             4    7     1      -0.6997242514E-02       4    7    1        -0.3779810777E+00      0.8072526013E+00
          0                 3           2             4    7     1       0.4767008437E-03       4    7    1         0.2645864683E-01      0.5662380337E-01
          0                 4           1             5    8     1       0.1937856187E-04       5    8    1         0.1096005994E-02      0.2499761607E-02

    ------------------------------------------------
       NWT REQUIRED            4 OUTER ITERATIONS 
       AND A TOTAL OF          7 INNER ITERATIONS.
    ------------------------------------------------

 NO OUTPUT CONTROL FOR STRESS PERIOD   46   TIME STEP   29
 
 SOLVING FOR HEAD 
                                                   Max.-Head-Change                         Max.-Flux-Residual
  Residual-Control   Outer-Iter.   Inner-Iter.     Column Row Layer    Maximum-Head-Change  Column Row Layer    Maximum-Flux-Residual          L2-NORM 
          0                 1           2             4    7     1       0.7117823357E-01       4    7    1         0.3739297779E+01      0.8108789382E+01
          0                 2           2             4    7     1      -0.5941059405E-01       4    7    1        -0.3190664128E+01      0.7504342409E+01
          0                 3           2             5    8     1      -0.4815991332E-02       5    8    1        -0.2798199838E+00      0.5665278654E+00
          0                 4           2             5    8     1       0.3279953973E-03       5    8    1         0.1939502373E-01      0.2804143360E-01
          0                 5           1             5    8     1      -0.1305434894E-04       5    8    1        -0.7854735461E-03      0.8292545215E-03

    ------------------------------------------------
       NWT REQUIRED            5 OUTER ITERATIONS 
       AND A TOTAL OF          9 INNER ITERATIONS.
    ------------------------------------------------

 NO OUTPUT CONTROL FOR STRESS PERIOD   46   TIME STEP   30



 STREAM LISTING     PERIOD     46   STEP       30

 LAYER ROW COL. STREAM  RCH.  FLOW INTO     FLOW TO   FLOW OUT OF   OVRLND.     DIRECT     STREAM       STREAM     STREAM     STREAM   STREAMBED  STREAMBED
                SEG.NO.  NO.  STRM. RCH.    AQUIFER    STRM. RCH.    RUNOFF     PRECIP       ET          HEAD       DEPTH      WIDTH   CONDCTNC.   GRADIENT

   1    1    1     1     1    9.3747E+00  1.4265E-01   9.2321E+00  0.000E+00  0.000E+00  0.000E+00  1.09393E+03  8.788E-01  8.172E+00  3.678E-02  1.293E+00
   1    2    2     1     2    9.2321E+00  2.1921E-01   9.0129E+00  0.000E+00  0.000E+00  0.000E+00  1.08893E+03  8.731E-01  8.085E+00  5.660E-02  1.291E+00
   1    3    3     1     3    9.0129E+00  1.8531E-01   8.8275E+00  0.000E+00  0.000E+00  0.000E+00  1.08329E+03  8.667E-01  7.987E+00  4.792E-02  1.289E+00
   1    3    4     1     4    8.8275E+00  1.6930E-01   8.6583E+00  0.000E+00  0.000E+00  0.000E+00  1.07827E+03  8.609E-01  7.901E+00  4.385E-02  1.287E+00
   1    4    5     2     1    6.6583E+00  2.7605E-01   6.3822E+00  0.000E+00  0.000E+00  0.000E+00  1.07247E+03  5.391E-01  1.200E+01  7.800E-02  1.180E+00
   1    5    6     2     2    6.3822E+00  2.1162E-01   6.1706E+00  0.000E+00  0.000E+00  0.000E+00  1.06704E+03  5.270E-01  1.200E+01  6.000E-02  1.176E+00
   1    6    6     2     3    6.1706E+00  2.1097E-01   5.9596E+00  0.000E+00  0.000E+00  0.000E+00  1.06231E+03  5.162E-01  1.200E+01  6.000E-02  1.172E+00
   1    7    6     2     4    5.9596E+00  2.1032E-01   5.7493E+00  0.000E+00  0.000E+00  0.000E+00  1.05758E+03  5.054E-01  1.200E+01  6.000E-02  1.168E+00
   1    8    6     2     5    5.7493E+00  2.0967E-01   5.5396E+00  0.000E+00  0.000E+00  0.000E+00  1.05285E+03  4.944E-01  1.200E+01  6.000E-02  1.165E+00
   1    3    5     3     1    2.0000E+00  2.8252E-01   1.7175E+00  0.000E+00  0.000E+00  0.000E+00  1.07555E+03  1.909E+00  9.636E+00  7.227E-02  1.955E+00
   1    3    6     3     2    1.7175E+00  2.4905E-01   1.4684E+00  0.000E+00  0.000E+00  0.000E+00  1.07264E+03  1.727E+00  8.909E+00  6.682E-02  1.864E+00
   1    3    7     3     3    1.4684E+00  1.9718E-01   1.2712E+00  0.000E+00  0.000E+00  0.000E+00  1.06987E+03  1.555E+00  8.218E+00  5.547E-02  1.777E+00
   1    4    8     3     4    1.2712E+00  2.2567E-01   1.0456E+00  0.000E+00  0.000E+00  0.000E+00  1.06682E+03  1.364E+00  7.455E+00  6.709E-02  1.682E+00
   1    5    8     3     5    1.0456E+00  1.5790E-01   8.8768E-01  0.000E+00  0.000E+00  0.000E+00  1.06362E+03  1.164E+00  6.655E+00  4.991E-02  1.582E+00
   1    6    8     3     6    8.8768E-01  5.5980E-02   8.3170E-01  0.000E+00  0.000E+00  0.000E+00  1.06158E+03  1.036E+00  6.145E+00  1.844E-02  1.518E+00
   1    5   10     4     1    1.0000E+01  9.0919E-02   9.9091E+00  0.000E+00  0.000E+00  0.000E+00  1.07836E+03  6.368E-01  1.000E+01  2.500E-02  1.212E+00
   1    5    9     4     2    9.9091E+00  1.8158E-01   9.7275E+00  0.000E+00  0.000E+00  0.000E+00  1.07154E+03  6.315E-01  1.000E+01  5.000E-02  1.211E+00
   1    6    8     4     3    9.7275E+00  1.2689E-01   9.6006E+00  0.000E+00  0.000E+00  0.000E+00  1.06381E+03  6.256E-01  1.000E+01  3.500E-02  1.209E+00
   1    6    8     5     1    1.0432E+01  2.2686E-01   1.0205E+01  0.000E+00  0.000E+00  0.000E+00  1.05868E+03  6.790E-01  1.542E+01  6.166E-02  1.226E+00
   1    7    7     5     2    1.0205E+01  2.7894E-01   9.9265E+00  0.000E+00  0.000E+00  0.000E+00  1.05417E+03  6.732E-01  1.519E+01  7.594E-02  1.224E+00
   1    8    7     5     3    9.9265E+00  1.9221E-01   9.7343E+00  0.000E+00  0.000E+00  0.000E+00  1.04992E+03  6.676E-01  1.497E+01  5.241E-02  1.223E+00
   1    8    6     5     4    9.7343E+00  1.3577E-01   9.5985E+00  0.000E+00  0.000E+00  0.000E+00  1.04691E+03  6.637E-01  1.482E+01  3.706E-02  1.221E+00
   1    9    6     6     1    9.5985E+00  2.2097E-01   9.3776E+00  0.000E+00  0.000E+00  0.000E+00  1.04341E+03  6.828E-01  1.200E+01  6.000E-02  1.228E+00
   1   10    7     6     2    9.3776E+00  2.2039E-01   9.1572E+00  0.000E+00  0.000E+00  0.000E+00  1.03885E+03  6.732E-01  1.200E+01  6.000E-02  1.224E+00
   1   11    7     6     3    9.1572E+00  2.1981E-01   8.9374E+00  0.000E+00  0.000E+00  0.000E+00  1.03430E+03  6.636E-01  1.200E+01  6.000E-02  1.221E+00
   1   12    7     6     4    8.9374E+00  2.1923E-01   8.7181E+00  0.000E+00  0.000E+00  0.000E+00  1.02974E+03  6.539E-01  1.200E+01  6.000E-02  1.218E+00
   1   13    7     6     5    8.7181E+00  2.7962E-03   8.7153E+00  0.000E+00  0.000E+00  0.000E+00  1.02656E+03  6.489E-01  1.200E+01  2.400E-02  3.884E-02
   1   14    9     7     1    1.5000E+02  1.4060E+00   1.4859E+02  0.000E+00  0.000E+00  0.000E+00  1.03987E+03  2.288E+00  5.529E+01  5.593E-01  8.380E-01
   1   13    8     7     2    1.4859E+02  2.0459E+00   1.4655E+02  0.000E+00  0.000E+00  0.000E+00  1.03478E+03  2.278E+00  5.525E+01  6.147E-01  1.109E+00
   1   13    7     7     3    1.4655E+02  1.8123E+00   1.4474E+02  0.000E+00  0.000E+00  0.000E+00  1.02969E+03  2.268E+00  5.521E+01  5.583E-01  1.082E+00
   1   13    6     8     1    1.5345E+02  1.1559E+00   1.5230E+02  0.000E+00  0.000E+00  0.000E+00  1.02471E+03  2.837E+00  4.114E+01  4.192E-01  9.192E-01
   1   13    5     8     2    1.5230E+02  4.0346E-01   1.5189E+02  0.000E+00  0.000E+00  0.000E+00  1.01846E+03  2.832E+00  4.106E+01  4.184E-01  3.214E-01
   1   13    4     8     3    1.5189E+02 -1.6764E+00   1.5357E+02  0.000E+00  0.000E+00  0.000E+00  1.01221E+03  2.836E+00  4.112E+01  4.190E+00 -1.334E-01
   1   13    3     8     4    1.5357E+02 -3.2840E+00   1.5685E+02  0.000E+00  0.000E+00  0.000E+00  1.00598E+03  2.853E+00  4.137E+01  4.216E+00 -2.597E-01
   1   13    2     8     5    1.5685E+02 -2.5234E+00   1.5938E+02  0.000E+00  0.000E+00  0.000E+00  9.99748E+02  2.873E+00  4.166E+01  4.245E+00 -1.981E-01
   1   13    1     8     6    1.5938E+02 -1.9776E+00   1.6135E+02  0.000E+00  0.000E+00  0.000E+00  9.94763E+02  2.888E+00  4.188E+01  2.561E+00 -2.574E-01
   1    8    6     9     1    5.5396E+00  0.0000E+00   5.5396E+00  0.000E+00  0.000E+00  0.000E+00  1.08034E+03  1.590E+00  4.000E+00  0.000E+00  1.530E+00
   1    8    5     9     2    5.5396E+00  0.0000E+00   5.5396E+00  0.000E+00  0.000E+00  0.000E+00  1.07984E+03  1.590E+00  4.000E+00  0.000E+00  1.530E+00





UNSATURATED ZONE PACKAGE VOLUMETRIC BUDGET FOR  TIME STEP    30 STRESS PERIOD   46
  ------------------------------------------------------------------------------



     CUMULATIVE VOLUMES      L**3       RATES FOR THIS TIME STEP      L**3/T
     ------------------                 ------------------------

           IN:                                      IN:
           ---                                      ---
        INFILTRATION =  2048514392.8542          INFILTRATION =          23.2876

          OUT:                                     OUT:
          ----                                     ----
              UZF ET =  1699154188.0888                UZF ET =          12.0675
        UZF RECHARGE =    67035275.8382          UZF RECHARGE =       0.0000E+00

            IN - OUT =   282324928.9272              IN - OUT =          11.2201

          STORAGE:                                 STORAGE:
          --------                                 --------
      STORAGE CHANGE =   282326575.3116        STORAGE CHANGE =          11.2201

 PERCENT DISCREPANCY IS DIFFERENCE BETWEEN IN-OUT MINUS CHANGE IN STORAGE
 DIVIDED BY THE AVERAGE OF IN AND OUT TIMES 100

 PERCENT DISCREPANCY =          -0.00     PERCENT DISCREPANCY =           0.00






1
  VOLUMETRIC BUDGET FOR AGRICULTURAL FIELDS AT  END OF TIME STEP   30, STRESS PERIOD  46
  ------------------------------------------------------------------------------

     CUMULATIVE VOLUMES      L**3       RATES FOR THIS TIME STEP      L**3/T
     ------------------                 ------------------------

           IN:                                      IN:
           ---                                      ---
               AG WELLS  =  1328487936.0000                 AG WELLS  =          16.9004
      DIVERSION SEGMENTS =   619651328.0000        DIVERSION SEGMENTS =           5.5396
           GW IRRIGATION =           0.0000             GW IRRIGATION =           0.0000
           SW IRRIGATION =           0.0000             SW IRRIGATION =           0.0000
        SYSTEM LOSSES GW =           0.0000          SYSTEM LOSSES GW =           0.0000
        SYSTEM LOSSES SW =           0.0000          SYSTEM LOSSES SW =           0.0000

                TOTAL IN =  1948139264.0000                  TOTAL IN =          22.4400

          OUT:                                     OUT:
          ----                                     ----
               AG WELLS  =           0.0000                 AG WELLS  =           0.0000
      DIVERSION SEGMENTS =           0.0000        DIVERSION SEGMENTS =           0.0000
           GW IRRIGATION =  1328487936.0000             GW IRRIGATION =          16.9004
           SW IRRIGATION =   619662976.0000             SW IRRIGATION =           5.5397
        SYSTEM LOSSES GW =           0.0000          SYSTEM LOSSES GW =           0.0000
        SYSTEM LOSSES SW =           0.0000          SYSTEM LOSSES SW =           0.0000

               TOTAL OUT =  1948150912.0000                 TOTAL OUT =          22.4401

                IN - OUT =      -11648.0000                  IN - OUT =      -1.1063E-04

     PERCENT DISCREPANCY =          -0.00         PERCENT DISCREPANCY =          -0.00



1
  VOLUMETRIC BUDGET FOR ENTIRE MODEL AT END OF TIME STEP   30, STRESS PERIOD  46
  ------------------------------------------------------------------------------

     CUMULATIVE VOLUMES      L**3       RATES FOR THIS TIME STEP      L**3/T
     ------------------                 ------------------------

           IN:                                      IN:
           ---                                      ---
             STORAGE     =  1865467776.0000               STORAGE     =          16.6298
       CONSTANT HEAD     =           0.0000         CONSTANT HEAD     =           0.0000
     HEAD DEP BOUNDS     =    34203308.0000       HEAD DEP BOUNDS     =           0.2905
      STREAM LEAKAGE     =  1424489728.0000        STREAM LEAKAGE     =          11.9434
        UZF RECHARGE     =    67035272.0000          UZF RECHARGE     =           0.0000
               GW ET     =           0.0000                 GW ET     =           0.0000
     SURFACE LEAKAGE     =           0.0000       SURFACE LEAKAGE     =           0.0000
           AG WELLS      =           0.0000             AG WELLS      =           0.0000

                TOTAL IN =  3391196160.0000                  TOTAL IN =          28.8637

          OUT:                                     OUT:
          ----                                     ----
             STORAGE     =   867990848.0000               STORAGE     =           2.2156
       CONSTANT HEAD     =           0.0000         CONSTANT HEAD     =           0.0000
     HEAD DEP BOUNDS     =    34097700.0000       HEAD DEP BOUNDS     =           0.2864
      STREAM LEAKAGE     =  1160640000.0000        STREAM LEAKAGE     =           9.4614
        UZF RECHARGE     =           0.0000          UZF RECHARGE     =           0.0000
               GW ET     =           0.0000                 GW ET     =           0.0000
     SURFACE LEAKAGE     =           0.0000       SURFACE LEAKAGE     =           0.0000
           AG WELLS      =  1328487936.0000             AG WELLS      =          16.9004

               TOTAL OUT =  3391216640.0000                 TOTAL OUT =          28.8637

                IN - OUT =      -20480.0000                  IN - OUT =       2.2888E-05

     PERCENT DISCREPANCY =          -0.00         PERCENT DISCREPANCY =           0.00






         TIME SUMMARY AT END OF TIME STEP   30 IN STRESS PERIOD   46
                    SECONDS     MINUTES      HOURS       DAYS        YEARS
                    -----------------------------------------------------------
   TIME STEP LENGTH  87667.      1461.1      24.352      1.0147     2.77799E-03
 STRESS PERIOD TIME 2.63000E+06  43833.      730.56      30.440     8.33397E-02
         TOTAL TIME 1.18435E+08 1.97392E+06  32899.      1370.8      3.7530    
1
1
                            STRESS PERIOD NO.   47, LENGTH =   2630000.    
                            -----------------------------------------------

                              NUMBER OF TIME STEPS =    30

                               MULTIPLIER FOR DELT =     1.000

                            INITIAL TIME STEP SIZE =   87666.66    

 REUSING NON-PARAMETER GHB CELLS FROM LAST STRESS PERIOD

      2 GHB CELLS

 REUSING STREAM SEGMENT DATA FROM LAST STRESS PERIOD



            AREAL INFILTRATION RATE
 READING ON UNIT   19 WITH FORMAT: (FREE)              

            1           2           3           4           5           6           7           8           9          10
 ........................................................................................................................
   1   1.0000E-10  2.0000E-10   0.000       0.000       0.000       0.000       0.000       0.000       0.000       0.000    
   2   2.0000E-10  1.0000E-10  2.0000E-10   0.000       0.000      8.0000E-10  8.0000E-10  5.0000E-10   0.000       0.000    
   3    0.000      5.0000E-10  1.0000E-10  1.0000E-10  8.0000E-10  8.0000E-10  5.0000E-10  5.0000E-10   0.000       0.000    
   4   8.0000E-10  5.0000E-10  1.0000E-10  1.0000E-10  1.0000E-10  1.0000E-10  1.0000E-10  1.0000E-10  2.0000E-10   0.000    
   5   8.0000E-10  5.0000E-10  1.0000E-10  1.0000E-10  1.0000E-10  1.0000E-10  1.0000E-10  1.0000E-10  1.0000E-10  1.0000E-10
   6   8.0000E-10  5.0000E-10  5.0000E-10  2.0000E-10  2.0000E-10  1.0000E-10  1.0000E-10  1.0000E-10  1.0000E-10  5.0000E-10
   7   8.0000E-10  5.0000E-10  5.0000E-10  2.0000E-10  2.0000E-10  1.0000E-10  1.0000E-10  2.0000E-10  2.0000E-10   0.000    
   8    0.000      5.0000E-10  5.0000E-10  2.0000E-10  2.0000E-10  1.0000E-10  1.0000E-10  2.0000E-10  5.0000E-10   0.000    
   9    0.000      5.0000E-10  5.0000E-10  2.0000E-10  2.0000E-10  1.0000E-10  1.0000E-10  2.0000E-10  5.0000E-10   0.000    
  10    0.000      5.0000E-10  5.0000E-10  2.0000E-10  2.0000E-10  1.0000E-10  1.0000E-10  2.0000E-10  5.0000E-10  8.0000E-10
  11    0.000      1.0000E-10  1.0000E-10  1.0000E-10  1.0000E-10  1.0000E-10  1.0000E-10  2.0000E-10  5.0000E-10   0.000    
  12   1.0000E-10  1.0000E-10  1.0000E-10  1.0000E-10  1.0000E-10  1.0000E-10  1.0000E-10  1.0000E-10  2.0000E-10   0.000    
  13   1.0000E-10  1.0000E-10  2.0000E-10  2.0000E-10  2.0000E-10  2.0000E-10  2.0000E-10  1.0000E-10  1.0000E-10   0.000    
  14    0.000      2.0000E-10  5.0000E-10  5.0000E-10  5.0000E-10  5.0000E-10  5.0000E-10  2.0000E-10  1.0000E-10   0.000    
  15    0.000       0.000      8.0000E-10  8.0000E-10  8.0000E-10  8.0000E-10   0.000       0.000       0.000       0.000    

                  ET RATE =  5.000000E-09

 USING ET EXTINCTION DEPTH FROM PREVIOUS STRESS PERIOD. CURRENT PERIOD IS:      47

 USING EXTINCTION WATER CONTENT FROM PREVIOUS STRESS PERIOD. CURRENT PERIOD IS:      47

 USING AIR ENTRY PRESSURE FROM PREVIOUS STRESS PERIOD. CURRENT PERIOD IS:      47

 USING ROOT PRESSURE HEAD FROM PREVIOUS STRESS PERIOD. CURRENT PERIOD IS:      47

 USING ROOT ACTIVITY FROM PREVIOUS STRESS PERIOD. CURRENT PERIOD IS:      47

 PROCESSING AG STRESS PERIOD DATA

 READING AG STRESS PERIOD DATA

 READING IRRIGATION SEGMENT

 READING IRRIGATION WELL

 READING SUPPLEMENTAL WELL

 END PROCESSING AG STRESS PERIOD DATA OPTIONS
 
 SOLVING FOR HEAD 
                                                   Max.-Head-Change                         Max.-Flux-Residual
  Residual-Control   Outer-Iter.   Inner-Iter.     Column Row Layer    Maximum-Head-Change  Column Row Layer    Maximum-Flux-Residual          L2-NORM 
          0                 1           2             4    7     1       0.7065059732E-01       4    7    1         0.3711235974E+01      0.8077621311E+01
          0                 2           2             4    7     1      -0.6869431803E-02       4    7    1        -0.3711276015E+00      0.7863276827E+00
          0                 3           2             4    7     1       0.4679799649E-03       4    7    1         0.2597890334E-01      0.5512911447E-01
          0                 4           1             4    7     1      -0.1860608453E-04       4    7    1        -0.1062538812E-02      0.2415392722E-02

    ------------------------------------------------
       NWT REQUIRED            4 OUTER ITERATIONS 
       AND A TOTAL OF          7 INNER ITERATIONS.
    ------------------------------------------------

 NO OUTPUT CONTROL FOR STRESS PERIOD   47   TIME STEP    1
 
 SOLVING FOR HEAD 
                                                   Max.-Head-Change                         Max.-Flux-Residual
  Residual-Control   Outer-Iter.   Inner-Iter.     Column Row Layer    Maximum-Head-Change  Column Row Layer    Maximum-Flux-Residual          L2-NORM 
          0                 1           2             4    7     1       0.6986777798E-01       4    7    1         0.3670944691E+01      0.7923739452E+01
          0                 2           2             4    7     1      -0.6793032360E-02       4    7    1        -0.3670985527E+00      0.7830898014E+00
          0                 3           2             4    7     1       0.4628314506E-03       4    7    1         0.2569686894E-01      0.5503614309E-01
          0                 4           1             5    8     1       0.2266392999E-04       5    8    1         0.1276521862E-02      0.2503526267E-02

    ------------------------------------------------
       NWT REQUIRED            4 OUTER ITERATIONS 
       AND A TOTAL OF          7 INNER ITERATIONS.
    ------------------------------------------------

 NO OUTPUT CONTROL FOR STRESS PERIOD   47   TIME STEP    2
 
 SOLVING FOR HEAD 
                                                   Max.-Head-Change                         Max.-Flux-Residual
  Residual-Control   Outer-Iter.   Inner-Iter.     Column Row Layer    Maximum-Head-Change  Column Row Layer    Maximum-Flux-Residual          L2-NORM 
          0                 1           2             4    7     1       0.6907970465E-01       4    7    1         0.3630294479E+01      0.7773686023E+01
          0                 2           2             4    7     1      -0.6716480111E-02       4    7    1        -0.3630335923E+00      0.7686449532E+00
          0                 3           2             4    7     1       0.4576104117E-03       4    7    1         0.2541232114E-01      0.5400772124E-01
          0                 4           1             5    8     1       0.2192968163E-04       5    8    1         0.1235856183E-02      0.2450470863E-02

    ------------------------------------------------
       NWT REQUIRED            4 OUTER ITERATIONS 
       AND A TOTAL OF          7 INNER ITERATIONS.
    ------------------------------------------------

 NO OUTPUT CONTROL FOR STRESS PERIOD   47   TIME STEP    3
 
 SOLVING FOR HEAD 
                                                   Max.-Head-Change                         Max.-Flux-Residual
  Residual-Control   Outer-Iter.   Inner-Iter.     Column Row Layer    Maximum-Head-Change  Column Row Layer    Maximum-Flux-Residual          L2-NORM 
          0                 1           2             4    7     1       0.6828696657E-01       4    7    1         0.3589341821E+01      0.7629082620E+01
          0                 2           2             4    7     1      -0.6639467506E-02       4    7    1        -0.3589383734E+00      0.7546950593E+00
          0                 3           2             4    7     1       0.4523585204E-03       4    7    1         0.2512565536E-01      0.5301560510E-01
          0                 4           1             5    8     1       0.2124034396E-04       5    8    1         0.1197653329E-02      0.2399730910E-02

    ------------------------------------------------
       NWT REQUIRED            4 OUTER ITERATIONS 
       AND A TOTAL OF          7 INNER ITERATIONS.
    ------------------------------------------------

 NO OUTPUT CONTROL FOR STRESS PERIOD   47   TIME STEP    4
 
 SOLVING FOR HEAD 
                                                   Max.-Head-Change                         Max.-Flux-Residual
  Residual-Control   Outer-Iter.   Inner-Iter.     Column Row Layer    Maximum-Head-Change  Column Row Layer    Maximum-Flux-Residual          L2-NORM 
          0                 1           2             4    7     1       0.6749068367E-01       4    7    1         0.3548147643E+01      0.7489596067E+01
          0                 2           2             4    7     1      -0.6562104001E-02       4    7    1        -0.3548189893E+00      0.7412120250E+00
          0                 3           2             4    7     1       0.4470831915E-03       4    7    1         0.2483729815E-01      0.5205802305E-01
          0                 4           1             5    8     1       0.2059239666E-04       5    8    1         0.1161665830E-02      0.2351140957E-02

    ------------------------------------------------
       NWT REQUIRED            4 OUTER ITERATIONS 
       AND A TOTAL OF          7 INNER ITERATIONS.
    ------------------------------------------------

 NO OUTPUT CONTROL FOR STRESS PERIOD   47   TIME STEP    5
 
 SOLVING FOR HEAD 
                                                   Max.-Head-Change                         Max.-Flux-Residual
  Residual-Control   Outer-Iter.   Inner-Iter.     Column Row Layer    Maximum-Head-Change  Column Row Layer    Maximum-Flux-Residual          L2-NORM 
          0                 1           2             4    7     1       0.6669191337E-01       4    7    1         0.3506769980E+01      0.7354916938E+01
          0                 2           2             4    7     1      -0.6484513659E-02       4    7    1        -0.3506823582E+00      0.7281714439E+00
          0                 3           2             4    7     1       0.4417904138E-03       4    7    1         0.2454760006E-01      0.5113160278E-01
          0                 4           1             5    8     1       0.1999419144E-04       5    8    1         0.1128752414E-02      0.2303895796E-02

    ------------------------------------------------
       NWT REQUIRED            4 OUTER ITERATIONS 
       AND A TOTAL OF          7 INNER ITERATIONS.
    ------------------------------------------------

 NO OUTPUT CONTROL FOR STRESS PERIOD   47   TIME STEP    6
 
 SOLVING FOR HEAD 
                                                   Max.-Head-Change                         Max.-Flux-Residual
  Residual-Control   Outer-Iter.   Inner-Iter.     Column Row Layer    Maximum-Head-Change  Column Row Layer    Maximum-Flux-Residual          L2-NORM 
          0                 1           2             4    7     1       0.6589165248E-01       4    7    1         0.3465263638E+01      0.7225847538E+01
          0                 2           2             4    7     1      -0.8200686767E-02       4    7    1        -0.4427987020E+00      0.9030993795E+00
          0                 3           2             4    7     1       0.2303691724E-02       4    7    1         0.1272639416E+00      0.2953181278E+00
          0                 4           1             5    8     1       0.1508612824E-03       5    8    1         0.8472110260E-02      0.1414773060E-01
          0                 5           1             5    8     1       0.1198319388E-04       5    8    1         0.6588860483E-03      0.6789863797E-03

    ------------------------------------------------
       NWT REQUIRED            5 OUTER ITERATIONS 
       AND A TOTAL OF          8 INNER ITERATIONS.
    ------------------------------------------------

 NO OUTPUT CONTROL FOR STRESS PERIOD   47   TIME STEP    7
 
 SOLVING FOR HEAD 
                                                   Max.-Head-Change                         Max.-Flux-Residual
  Residual-Control   Outer-Iter.   Inner-Iter.     Column Row Layer    Maximum-Head-Change  Column Row Layer    Maximum-Flux-Residual          L2-NORM 
          0                 1           2             4    7     1       0.6509096716E-01       4    7    1         0.3423687328E+01      0.7100946724E+01
          0                 2           2             4    7     1      -0.6328924371E-02       4    7    1        -0.3423729921E+00      0.7035191476E+00
          0                 3           2             4    7     1       0.4311854426E-03       4    7    1         0.2396607792E-01      0.4938441022E-01
          0                 4           1             5    8     1       0.1886597392E-04       5    8    1         0.1065847513E-02      0.2217448784E-02

    ------------------------------------------------
       NWT REQUIRED            4 OUTER ITERATIONS 
       AND A TOTAL OF          7 INNER ITERATIONS.
    ------------------------------------------------

 NO OUTPUT CONTROL FOR STRESS PERIOD   47   TIME STEP    8
 
 SOLVING FOR HEAD 
                                                   Max.-Head-Change                         Max.-Flux-Residual
  Residual-Control   Outer-Iter.   Inner-Iter.     Column Row Layer    Maximum-Head-Change  Column Row Layer    Maximum-Flux-Residual          L2-NORM 
          0                 1           2             4    7     1       0.6429047718E-01       4    7    1         0.3382075122E+01      0.6979082625E+01
          0                 2           2             4    7     1      -0.8396186028E-02       4    7    1        -0.4533209914E+00      0.9192293638E+00
          0                 3           2             4    7     1       0.2658518862E-02       4    7    1         0.1468416455E+00      0.3419961618E+00
          0                 4           1             5    8     1       0.1755333215E-03       5    8    1         0.9857887404E-02      0.1640942732E-01
          0                 5           1             5    8     1       0.1394279777E-04       5    8    1         0.7666337567E-03      0.7901657532E-03

    ------------------------------------------------
       NWT REQUIRED            5 OUTER ITERATIONS 
       AND A TOTAL OF          8 INNER ITERATIONS.
    ------------------------------------------------

 NO OUTPUT CONTROL FOR STRESS PERIOD   47   TIME STEP    9
 
 SOLVING FOR HEAD 
                                                   Max.-Head-Change                         Max.-Flux-Residual
  Residual-Control   Outer-Iter.   Inner-Iter.     Column Row Layer    Maximum-Head-Change  Column Row Layer    Maximum-Flux-Residual          L2-NORM 
          0                 1           2             4    7     1       0.6349127919E-01       4    7    1         0.3340487386E+01      0.6861049672E+01
          0                 2           2             4    7     1      -0.6173460441E-02       4    7    1        -0.3340529745E+00      0.6801578106E+00
          0                 3           2             4    7     1       0.4205879211E-03       4    7    1         0.2338367680E-01      0.4773066370E-01
          0                 4           1             5    8     1       0.1787024721E-04       5    8    1         0.1010681886E-02      0.2136450078E-02

    ------------------------------------------------
       NWT REQUIRED            4 OUTER ITERATIONS 
       AND A TOTAL OF          7 INNER ITERATIONS.
    ------------------------------------------------

 NO OUTPUT CONTROL FOR STRESS PERIOD   47   TIME STEP   10
 
 SOLVING FOR HEAD 
                                                   Max.-Head-Change                         Max.-Flux-Residual
  Residual-Control   Outer-Iter.   Inner-Iter.     Column Row Layer    Maximum-Head-Change  Column Row Layer    Maximum-Flux-Residual          L2-NORM 
          0                 1           2             4    7     1       0.6269401642E-01       4    7    1         0.3298959953E+01      0.6746620400E+01
          0                 2           2             4    7     1      -0.8256583895E-02       4    7    1        -0.4458444968E+00      0.8991001216E+00
          0                 3           2             4    7     1       0.2664133323E-02       4    7    1         0.1471533320E+00      0.3425221965E+00
          0                 4           1             5    8     1       0.1757309583E-03       5    8    1         0.9868204818E-02      0.1643359819E-01
          0                 5           1             5    8     1       0.1395836218E-04       5    8    1         0.7674092885E-03      0.7909021873E-03

    ------------------------------------------------
       NWT REQUIRED            5 OUTER ITERATIONS 
       AND A TOTAL OF          8 INNER ITERATIONS.
    ------------------------------------------------

 NO OUTPUT CONTROL FOR STRESS PERIOD   47   TIME STEP   11
 
 SOLVING FOR HEAD 
                                                   Max.-Head-Change                         Max.-Flux-Residual
  Residual-Control   Outer-Iter.   Inner-Iter.     Column Row Layer    Maximum-Head-Change  Column Row Layer    Maximum-Flux-Residual          L2-NORM 
          0                 1           2             4    7     1       0.6189940327E-01       4    7    1         0.3257532705E+01      0.6635635913E+01
          0                 2           2             4    7     1      -0.6018741121E-02       4    7    1        -0.3257574538E+00      0.6581488946E+00
          0                 3           2             4    7     1       0.4100422574E-03       4    7    1         0.2280299074E-01      0.4617483191E-01
          0                 4           1             5    8     1       0.1697869201E-04       5    8    1         0.9608261091E-03      0.2060931737E-02

    ------------------------------------------------
       NWT REQUIRED            4 OUTER ITERATIONS 
       AND A TOTAL OF          7 INNER ITERATIONS.
    ------------------------------------------------

 NO OUTPUT CONTROL FOR STRESS PERIOD   47   TIME STEP   12
 
 SOLVING FOR HEAD 
                                                   Max.-Head-Change                         Max.-Flux-Residual
  Residual-Control   Outer-Iter.   Inner-Iter.     Column Row Layer    Maximum-Head-Change  Column Row Layer    Maximum-Flux-Residual          L2-NORM 
          0                 1           2             4    7     1       0.6110811713E-01       4    7    1         0.3216243349E+01      0.6527903714E+01
          0                 2           2             4    7     1      -0.8109362241E-02       4    7    1        -0.4379445852E+00      0.8791671992E+00
          0                 3           2             4    7     1       0.2660833400E-02       4    7    1         0.1469721722E+00      0.3419482243E+00
          0                 4           1             5    8     1       0.1753920040E-03       5    8    1         0.9849578603E-02      0.1640572578E-01
          0                 5           1             5    8     1       0.1393131204E-04       5    8    1         0.7659118608E-03      0.7893684196E-03

    ------------------------------------------------
       NWT REQUIRED            5 OUTER ITERATIONS 
       AND A TOTAL OF          8 INNER ITERATIONS.
    ------------------------------------------------

 NO OUTPUT CONTROL FOR STRESS PERIOD   47   TIME STEP   13
 
 SOLVING FOR HEAD 
                                                   Max.-Head-Change                         Max.-Flux-Residual
  Residual-Control   Outer-Iter.   Inner-Iter.     Column Row Layer    Maximum-Head-Change  Column Row Layer    Maximum-Flux-Residual          L2-NORM 
          0                 1           2             4    7     1       0.6032077510E-01       4    7    1         0.3175126307E+01      0.6423296873E+01
          0                 2           2             4    7     1      -0.5865297298E-02       4    7    1        -0.3175167380E+00      0.6373689102E+00
          0                 3           2             4    7     1       0.3995844430E-03       4    7    1         0.2222614123E-01      0.4470743124E-01
          0                 4           1             5    8     1       0.1617684813E-04       5    8    1         0.9161211549E-03      0.1990563748E-02

    ------------------------------------------------
       NWT REQUIRED            4 OUTER ITERATIONS 
       AND A TOTAL OF          7 INNER ITERATIONS.
    ------------------------------------------------

 NO OUTPUT CONTROL FOR STRESS PERIOD   47   TIME STEP   14
 
 SOLVING FOR HEAD 
                                                   Max.-Head-Change                         Max.-Flux-Residual
  Residual-Control   Outer-Iter.   Inner-Iter.     Column Row Layer    Maximum-Head-Change  Column Row Layer    Maximum-Flux-Residual          L2-NORM 
          0                 1           2             4    7     1       0.5953795266E-01       4    7    1         0.3134214251E+01      0.6321622834E+01
          0                 2           2             4    7     1      -0.7962642005E-02       4    7    1        -0.4300588353E+00      0.8601952318E+00
          0                 3           2             4    7     1       0.2656578968E-02       4    7    1         0.1467374161E+00      0.3413165160E+00
          0                 4           1             5    8     1       0.1750622792E-03       5    8    1         0.9831382184E-02      0.1637607967E-01
          0                 5           1             5    8     1       0.1390500149E-04       5    8    1         0.7644570815E-03      0.7880268456E-03

    ------------------------------------------------
       NWT REQUIRED            5 OUTER ITERATIONS 
       AND A TOTAL OF          8 INNER ITERATIONS.
    ------------------------------------------------

 NO OUTPUT CONTROL FOR STRESS PERIOD   47   TIME STEP   15
 
 SOLVING FOR HEAD 
                                                   Max.-Head-Change                         Max.-Flux-Residual
  Residual-Control   Outer-Iter.   Inner-Iter.     Column Row Layer    Maximum-Head-Change  Column Row Layer    Maximum-Flux-Residual          L2-NORM 
          0                 1           2             4    7     1       0.5876030888E-01       4    7    1         0.3093543547E+01      0.6222808791E+01
          0                 2           2             4    7     1      -0.5713608810E-02       4    7    1        -0.3093583675E+00      0.6177095416E+00
          0                 3           2             4    7     1       0.3892470174E-03       4    7    1         0.2165505604E-01      0.4332052065E-01
          0                 4           1             4    7     1      -0.1547521304E-04       4    7    1        -0.8856931991E-03      0.1924766001E-02

    ------------------------------------------------
       NWT REQUIRED            4 OUTER ITERATIONS 
       AND A TOTAL OF          7 INNER ITERATIONS.
    ------------------------------------------------

 NO OUTPUT CONTROL FOR STRESS PERIOD   47   TIME STEP   16
 
 SOLVING FOR HEAD 
                                                   Max.-Head-Change                         Max.-Flux-Residual
  Residual-Control   Outer-Iter.   Inner-Iter.     Column Row Layer    Maximum-Head-Change  Column Row Layer    Maximum-Flux-Residual          L2-NORM 
          0                 1           2             4    7     1       0.5798818893E-01       4    7    1         0.3053134588E+01      0.6126663546E+01
          0                 2           2             4    7     1      -0.7817120898E-02       4    7    1        -0.4222264386E+00      0.8421276101E+00
          0                 3           2             4    7     1       0.2651653343E-02       4    7    1         0.1464648206E+00      0.3406542784E+00
          0                 4           1             5    8     1       0.1747479282E-03       5    8    1         0.9813976775E-02      0.1634559896E-01
          0                 5           1             5    8     1       0.1387991773E-04       5    8    1         0.7630714344E-03      0.7865710710E-03

    ------------------------------------------------
       NWT REQUIRED            5 OUTER ITERATIONS 
       AND A TOTAL OF          8 INNER ITERATIONS.
    ------------------------------------------------

 NO OUTPUT CONTROL FOR STRESS PERIOD   47   TIME STEP   17
 
 SOLVING FOR HEAD 
                                                   Max.-Head-Change                         Max.-Flux-Residual
  Residual-Control   Outer-Iter.   Inner-Iter.     Column Row Layer    Maximum-Head-Change  Column Row Layer    Maximum-Flux-Residual          L2-NORM 
          0                 1           2             5    8     1       0.1063428673E+00       5    8    1         0.5787087160E+01      0.8215261035E+01
          0                 2           2             5    8     1       0.4199116903E-01       5    8    1         0.2324937982E+01      0.2396941317E+01
          0                 3           2             5    8     1       0.1658080589E-01       5    8    1         0.9142550429E+00      0.9152075579E+00
          0                 4           1             5    8     1       0.6547177342E-02       5    8    1         0.3612533853E+00      0.3612559758E+00
          0                 5           1             5    8     1       0.2585251210E-02       5    8    1         0.1426348029E+00      0.1426354963E+00
          0                 6           1             5    8     1       0.1020825411E-02       5    8    1         0.5632216144E-01      0.5632238282E-01
          0                 7           1             5    8     1       0.4030883301E-03       5    8    1         0.2223961724E-01      0.2223970666E-01
          0                 8           1             5    8     1       0.1591655192E-03       5    8    1         0.8781652923E-02      0.8781688461E-02
          0                 9           1             5    8     1       0.6284891141E-04       5    8    1         0.3467568227E-02      0.3467582957E-02

    ------------------------------------------------
       NWT REQUIRED            9 OUTER ITERATIONS 
       AND A TOTAL OF         12 INNER ITERATIONS.
    ------------------------------------------------

 NO OUTPUT CONTROL FOR STRESS PERIOD   47   TIME STEP   18
 
 SOLVING FOR HEAD 
                                                   Max.-Head-Change                         Max.-Flux-Residual
  Residual-Control   Outer-Iter.   Inner-Iter.     Column Row Layer    Maximum-Head-Change  Column Row Layer    Maximum-Flux-Residual          L2-NORM 
          0                 1           2             5    8     1       0.2029559541E+00       5    8    1         0.1111153042E+02      0.1256359041E+02
          0                 2           2             5    8     1       0.7794800464E-01       5    8    1         0.4313237381E+01      0.4393587285E+01
          0                 3           2             5    8     1       0.3296477449E-01       5    8    1         0.1814440422E+01      0.1842755386E+01
          0                 4           2             5    8     1       0.1301591801E-01       5    8    1         0.7183424748E+00      0.7184418911E+00
          0                 5           1             5    8     1       0.5139249571E-02       5    8    1         0.2835520216E+00      0.2835543740E+00
          0                 6           1             5    8     1       0.2029199618E-02       5    8    1         0.1119623780E+00      0.1119627897E+00
          0                 7           1             5    8     1       0.8012165204E-03       5    8    1         0.4420746842E-01      0.4420764773E-01
          0                 8           1             5    8     1       0.3163552475E-03       5    8    1         0.1745504989E-01      0.1745511996E-01
          0                 9           1             5    8     1       0.1249108606E-03       5    8    1         0.6892015296E-02      0.6892042982E-02
          0                10           1             5    8     1       0.4932026014E-04       5    8    1         0.2721268618E-02      0.2721279555E-02

    ------------------------------------------------
       NWT REQUIRED           10 OUTER ITERATIONS 
       AND A TOTAL OF         14 INNER ITERATIONS.
    ------------------------------------------------

 NO OUTPUT CONTROL FOR STRESS PERIOD   47   TIME STEP   19
 
 SOLVING FOR HEAD 
                                                   Max.-Head-Change                         Max.-Flux-Residual
  Residual-Control   Outer-Iter.   Inner-Iter.     Column Row Layer    Maximum-Head-Change  Column Row Layer    Maximum-Flux-Residual          L2-NORM 
          0                 1           2             5    8     1       0.1833041287E+00       5    8    1         0.1001344987E+02      0.1169970499E+02
          0                 2           2             5    8     1       0.7237288405E-01       5    8    1         0.4003634799E+01      0.4049096244E+01
          0                 3           2             5    8     1       0.2857449778E-01       5    8    1         0.1575943093E+01      0.1576568725E+01
          0                 4           2             5    8     1       0.1128190805E-01       5    8    1         0.6225172048E+00      0.6225203985E+00
          0                 5           1             5    8     1       0.4454374591E-02       5    8    1         0.2457713303E+00      0.2457730240E+00
          0                 6           1             5    8     1       0.1758697109E-02       5    8    1         0.9703744780E-01      0.9703805440E-01
          0                 7           1             5    8     1       0.6943771410E-03       5    8    1         0.3831274219E-01      0.3831298388E-01
          0                 8           1             5    8     1       0.2741572923E-03       5    8    1         0.1512682557E-01      0.1512692087E-01
          0                 9           1             5    8     1       0.1082440907E-03       5    8    1         0.5972445423E-02      0.5972483043E-02
          0                10           1             5    8     1       0.4273744891E-04       5    8    1         0.2358069544E-02      0.2358084407E-02

    ------------------------------------------------
       NWT REQUIRED           10 OUTER ITERATIONS 
       AND A TOTAL OF         14 INNER ITERATIONS.
    ------------------------------------------------

 NO OUTPUT CONTROL FOR STRESS PERIOD   47   TIME STEP   20
 
 SOLVING FOR HEAD 
                                                   Max.-Head-Change                         Max.-Flux-Residual
  Residual-Control   Outer-Iter.   Inner-Iter.     Column Row Layer    Maximum-Head-Change  Column Row Layer    Maximum-Flux-Residual          L2-NORM 
          0                 1           2             5    8     1       0.1659358345E+00       5    8    1         0.9043612658E+01      0.1098045610E+02
          0                 2           2             5    8     1       0.6331278023E-01       5    8    1         0.3508591537E+01      0.3615307989E+01
          0                 3           2             5    8     1       0.2719617505E-01       5    8    1         0.1496033850E+01      0.1530949805E+01
          0                 4           2             5    8     1       0.1073725283E-01       5    8    1         0.5926245270E+00      0.5927531189E+00
          0                 5           1             5    8     1       0.4248343291E-02       5    8    1         0.2341795986E+00      0.2341823634E+00
          0                 6           1             5    8     1       0.1679293972E-02       5    8    1         0.9256873123E-01      0.9256943305E-01
          0                 7           1             5    8     1       0.6637949236E-03       5    8    1         0.3659071263E-01      0.3659099826E-01
          0                 8           1             5    8     1       0.2623862984E-03       5    8    1         0.1446366139E-01      0.1446377387E-01
          0                 9           1             5    8     1       0.1037166282E-03       5    8    1         0.5717227944E-02      0.5717272416E-02
          0                10           1             5    8     1       0.4099733534E-04       5    8    1         0.2259918463E-02      0.2259936059E-02

    ------------------------------------------------
       NWT REQUIRED           10 OUTER ITERATIONS 
       AND A TOTAL OF         14 INNER ITERATIONS.
    ------------------------------------------------

 NO OUTPUT CONTROL FOR STRESS PERIOD   47   TIME STEP   21
 
 SOLVING FOR HEAD 
                                                   Max.-Head-Change                         Max.-Flux-Residual
  Residual-Control   Outer-Iter.   Inner-Iter.     Column Row Layer    Maximum-Head-Change  Column Row Layer    Maximum-Flux-Residual          L2-NORM 
          0                 1           2             5    8     1       0.1507122000E+00       5    8    1         0.8187134133E+01      0.1038279519E+02
          0                 2           2             5    8     1       0.5957040952E-01       5    8    1         0.3296356394E+01      0.3357626919E+01
          0                 3           2             5    8     1       0.2354566271E-01       5    8    1         0.1297183371E+01      0.1298020145E+01
          0                 4           2             5    8     1       0.9306635012E-02       5    8    1         0.5130685138E+00      0.5130713014E+00
          0                 5           1             5    8     1       0.3678534361E-02       5    8    1         0.2027814985E+00      0.2027832649E+00
          0                 6           1             5    8     1       0.1453975574E-02       5    8    1         0.8015194532E-01      0.8015256319E-01
          0                 7           1             5    8     1       0.5746977098E-03       5    8    1         0.3168080740E-01      0.3168105464E-01
          0                 8           1             5    8     1       0.2271547623E-03       5    8    1         0.1252214463E-01      0.1252224219E-01
          0                 9           1             5    8     1       0.8978509306E-04       5    8    1         0.4949497764E-02      0.4949536315E-02

    ------------------------------------------------
       NWT REQUIRED            9 OUTER ITERATIONS 
       AND A TOTAL OF         13 INNER ITERATIONS.
    ------------------------------------------------

 NO OUTPUT CONTROL FOR STRESS PERIOD   47   TIME STEP   22
 
 SOLVING FOR HEAD 
                                                   Max.-Head-Change                         Max.-Flux-Residual
  Residual-Control   Outer-Iter.   Inner-Iter.     Column Row Layer    Maximum-Head-Change  Column Row Layer    Maximum-Flux-Residual          L2-NORM 
          0                 1           2             5    8     1       0.1373145021E+00       5    8    1         0.7441151776E+01      0.9892866369E+01
          0                 2           2             5    8     1       0.5214595459E-01       5    8    1         0.2886515340E+01      0.2993285080E+01
          0                 3           2             5    8     1       0.2282417337E-01       5    8    1         0.1254079579E+01      0.1292670061E+01
          0                 4           2             5    8     1       0.9027397703E-02       5    8    1         0.4974813719E+00      0.4980118792E+00
          0                 5           2             5    8     1       0.3569259385E-02       5    8    1         0.1967039008E+00      0.1967532697E+00
          0                 6           1             5    8     1       0.1411052267E-02       5    8    1         0.7777265736E-01      0.7778308635E-01
          0                 7           1             5    8     1       0.5578163818E-03       5    8    1         0.3074589153E-01      0.3074911019E-01
          0                 8           1             5    8     1       0.2205128113E-03       5    8    1         0.1215441643E-01      0.1215557850E-01
          0                 9           1             5    8     1       0.8717149981E-04       5    8    1         0.4804810419E-02      0.4805255762E-02

    ------------------------------------------------
       NWT REQUIRED            9 OUTER ITERATIONS 
       AND A TOTAL OF         14 INNER ITERATIONS.
    ------------------------------------------------

 NO OUTPUT CONTROL FOR STRESS PERIOD   47   TIME STEP   23
 
 SOLVING FOR HEAD 
                                                   Max.-Head-Change                         Max.-Flux-Residual
  Residual-Control   Outer-Iter.   Inner-Iter.     Column Row Layer    Maximum-Head-Change  Column Row Layer    Maximum-Flux-Residual          L2-NORM 
          0                 1           2             5    8     1       0.1255047963E+00       5    8    1         0.6784203145E+01      0.9484098506E+01
          0                 2           2             5    8     1       0.4977290470E-01       5    8    1         0.2748404085E+01      0.2823689521E+01
          0                 3           2             5    8     1       0.1968785704E-01       5    8    1         0.1084391002E+01      0.1085640620E+01
          0                 4           2             5    8     1       0.7783408234E-02       5    8    1         0.4290530501E+00      0.4290915281E+00
          0                 5           1             5    8     1       0.3076762889E-02       5    8    1         0.1696025794E+00      0.1696114595E+00
          0                 6           1             5    8     1       0.1216213061E-02       5    8    1         0.6704332648E-01      0.6704634723E-01
          0                 7           1             5    8     1       0.4807562974E-03       5    8    1         0.2650157103E-01      0.2650273434E-01
          0                 8           1             5    8     1       0.1900361157E-03       5    8    1         0.1047570276E-01      0.1047615883E-01
          0                 9           1             5    8     1       0.7511855109E-04       5    8    1         0.4140895694E-02      0.4141075698E-02

    ------------------------------------------------
       NWT REQUIRED            9 OUTER ITERATIONS 
       AND A TOTAL OF         13 INNER ITERATIONS.
    ------------------------------------------------

 NO OUTPUT CONTROL FOR STRESS PERIOD   47   TIME STEP   24
 
 SOLVING FOR HEAD 
                                                   Max.-Head-Change                         Max.-Flux-Residual
  Residual-Control   Outer-Iter.   Inner-Iter.     Column Row Layer    Maximum-Head-Change  Column Row Layer    Maximum-Flux-Residual          L2-NORM 
          0                 1           2             5    8     1       0.1150906053E+00       5    8    1         0.6205628847E+01      0.9137205981E+01
          0                 2           2             5    8     1       0.4343107510E-01       5    8    1         0.2402804695E+01      0.2538000948E+01
          0                 3           2             5    8     1       0.1940068938E-01       5    8    1         0.1064976637E+01      0.1113262358E+01
          0                 4           2             5    8     1       0.7675069619E-02       5    8    1         0.4230388841E+00      0.4234513314E+00
          0                 5           1             5    8     1       0.3034259091E-02       5    8    1         0.1672506067E+00      0.1672689523E+00
          0                 6           1             5    8     1       0.1199393441E-02       5    8    1         0.6611756419E-01      0.6612110293E-01
          0                 7           1             5    8     1       0.4740868589E-03       5    8    1         0.2613471354E-01      0.2613590531E-01
          0                 8           1             5    8     1       0.1873922023E-03       5    8    1         0.1033029509E-01      0.1033074889E-01
          0                 9           1             5    8     1       0.7407037835E-04       5    8    1         0.4083250635E-02      0.4083428675E-02

    ------------------------------------------------
       NWT REQUIRED            9 OUTER ITERATIONS 
       AND A TOTAL OF         13 INNER ITERATIONS.
    ------------------------------------------------

 NO OUTPUT CONTROL FOR STRESS PERIOD   47   TIME STEP   25
 
 SOLVING FOR HEAD 
                                                   Max.-Head-Change                         Max.-Flux-Residual
  Residual-Control   Outer-Iter.   Inner-Iter.     Column Row Layer    Maximum-Head-Change  Column Row Layer    Maximum-Flux-Residual          L2-NORM 
          0                 1           2             4    8     1       0.6272539202E-01       4    8    1         0.3367431340E+01      0.6787467018E+01
          0                 2           2             5    7     1      -0.6068761572E-02       5    7    1        -0.3363814408E+00      0.6520775196E+00
          0                 3           2             4    8     1       0.4252587275E-03       5    7    1         0.2354512033E-01      0.4702054187E-01
          0                 4           1             4    8     1       0.3509241319E-04       4    8    1         0.1914730909E-02      0.2544410024E-02

    ------------------------------------------------
       NWT REQUIRED            4 OUTER ITERATIONS 
       AND A TOTAL OF          7 INNER ITERATIONS.
    ------------------------------------------------

 NO OUTPUT CONTROL FOR STRESS PERIOD   47   TIME STEP   26
 
 SOLVING FOR HEAD 
                                                   Max.-Head-Change                         Max.-Flux-Residual
  Residual-Control   Outer-Iter.   Inner-Iter.     Column Row Layer    Maximum-Head-Change  Column Row Layer    Maximum-Flux-Residual          L2-NORM 
          0                 1           2             5    8     1      -0.7435236644E-01       5    8    1        -0.4237036367E+01      0.7831802147E+01
          0                 2           2             4    7     1      -0.7407042362E-02       4    7    1        -0.4067393585E+00      0.8004524460E+00
          0                 3           2             4    7     1       0.2659322779E-02       4    7    1         0.1479319920E+00      0.3109895190E+00
          0                 4           2             4    8     1       0.2044032462E-03       5    7    1         0.1201994306E-01      0.2062471728E-01
          0                 5           1             5    7     1       0.2592549980E-04       5    7    1         0.1504907676E-02      0.1791954483E-02

    ------------------------------------------------
       NWT REQUIRED            5 OUTER ITERATIONS 
       AND A TOTAL OF          9 INNER ITERATIONS.
    ------------------------------------------------

 NO OUTPUT CONTROL FOR STRESS PERIOD   47   TIME STEP   27
 
 SOLVING FOR HEAD 
                                                   Max.-Head-Change                         Max.-Flux-Residual
  Residual-Control   Outer-Iter.   Inner-Iter.     Column Row Layer    Maximum-Head-Change  Column Row Layer    Maximum-Flux-Residual          L2-NORM 
          0                 1           2             4    8     1       0.1963734638E+00       4    8    1         0.1066738566E+02      0.1263642287E+02
          0                 2           2             4    8     1       0.7919064814E-01       4    8    1         0.4295174244E+01      0.4344537518E+01
          0                 3           2             4    8     1       0.3193323335E-01       4    8    1         0.1732639706E+01      0.1733261951E+01
          0                 4           2             4    8     1       0.1287683333E-01       4    8    1         0.6986126143E+00      0.6986208124E+00
          0                 5           2             4    8     1       0.5192478301E-02       4    8    1         0.2817185530E+00      0.2817194705E+00
          0                 6           2             4    8     1       0.2093824310E-02       4    8    1         0.1136000534E+00      0.1136004234E+00
          0                 7           2             4    8     1       0.8443174904E-03       4    8    1         0.4580835596E-01      0.4580850117E-01
          0                 8           2             4    8     1       0.3404641119E-03       4    8    1         0.1847184176E-01      0.1847190048E-01
          0                 9           2             4    8     1       0.1372893653E-03       4    8    1         0.7448619551E-02      0.7448643194E-02
          0                10           1             4    8     1       0.5536081288E-04       4    8    1         0.3003594913E-02      0.3003604444E-02

    ------------------------------------------------
       NWT REQUIRED           10 OUTER ITERATIONS 
       AND A TOTAL OF         19 INNER ITERATIONS.
    ------------------------------------------------

 NO OUTPUT CONTROL FOR STRESS PERIOD   47   TIME STEP   28
 
 SOLVING FOR HEAD 
                                                   Max.-Head-Change                         Max.-Flux-Residual
  Residual-Control   Outer-Iter.   Inner-Iter.     Column Row Layer    Maximum-Head-Change  Column Row Layer    Maximum-Flux-Residual          L2-NORM 
          0                 1           2             4    8     1       0.2267040464E+00       4    8    1         0.1229911320E+02      0.1393582474E+02
          0                 2           2             4    8     1       0.8916059160E-01       4    8    1         0.4840540558E+01      0.5020722071E+01
          0                 3           2             4    8     1       0.3822167047E-01       4    8    1         0.2070052954E+01      0.2163863794E+01
          0                 4           2             4    8     1       0.1541422731E-01       4    8    1         0.8364025739E+00      0.8667206722E+00
          0                 5           2             4    8     1       0.6216312690E-02       4    8    1         0.3372229496E+00      0.3489277323E+00
          0                 6           2             4    8     1       0.2506933837E-02       4    8    1         0.1360017394E+00      0.1405427235E+00
          0                 7           2             4    8     1       0.1011001490E-02       4    8    1         0.5484688834E-01      0.5660849403E-01
          0                 8           2             4    8     1       0.4077177567E-03       4    8    1         0.2211878316E-01      0.2280223031E-01
          0                 9           2             4    8     1       0.1644244434E-03       4    8    1         0.8920082833E-02      0.9185253500E-02
          0                10           1             4    8     1       0.6630893883E-04       4    8    1         0.3597290696E-02      0.3700181045E-02

    ------------------------------------------------
       NWT REQUIRED           10 OUTER ITERATIONS 
       AND A TOTAL OF         19 INNER ITERATIONS.
    ------------------------------------------------

 NO OUTPUT CONTROL FOR STRESS PERIOD   47   TIME STEP   29
 
 SOLVING FOR HEAD 
                                                   Max.-Head-Change                         Max.-Flux-Residual
  Residual-Control   Outer-Iter.   Inner-Iter.     Column Row Layer    Maximum-Head-Change  Column Row Layer    Maximum-Flux-Residual          L2-NORM 
          0                 1           2             5    7     1       0.2308981894E+00       5    7    1         0.1269132147E+02      0.1790335093E+02
          0                 2           2             5    7     1       0.9115878440E-01       5    7    1         0.5035420594E+01      0.6830110544E+01
          0                 3           2             5    7     1       0.3598983005E-01       5    7    1         0.1985474027E+01      0.2712241889E+01
          0                 4           2             5    7     1       0.1420909541E-01       5    7    1         0.7839831588E+00      0.1081711937E+01
          0                 5           2             5    7     1       0.5609936663E-02       5    7    1         0.3095234380E+00      0.4315249655E+00
          0                 6           2             4    8     1       0.2236656802E-02       5    7    1         0.1222039324E+00      0.1721864351E+00
          0                 7           2             4    8     1       0.9023110322E-03       4    8    1         0.4893573536E-01      0.6872173150E-01
          0                 8           2             4    8     1       0.3640059917E-03       4    8    1         0.1974160663E-01      0.2743403775E-01
          0                 9           2             4    8     1       0.1468440099E-03       4    8    1         0.7964054788E-02      0.1095433210E-01
          0                10           1             4    8     1       0.5923787232E-04       4    8    1         0.3212783099E-02      0.4375041192E-02

    ------------------------------------------------
       NWT REQUIRED           10 OUTER ITERATIONS 
       AND A TOTAL OF         19 INNER ITERATIONS.
    ------------------------------------------------

 NO OUTPUT CONTROL FOR STRESS PERIOD   47   TIME STEP   30



 STREAM LISTING     PERIOD     47   STEP       30

 LAYER ROW COL. STREAM  RCH.  FLOW INTO     FLOW TO   FLOW OUT OF   OVRLND.     DIRECT     STREAM       STREAM     STREAM     STREAM   STREAMBED  STREAMBED
                SEG.NO.  NO.  STRM. RCH.    AQUIFER    STRM. RCH.    RUNOFF     PRECIP       ET          HEAD       DEPTH      WIDTH   CONDCTNC.   GRADIENT

   1    1    1     1     1    7.9710E+00  1.2901E-01   7.8420E+00  0.000E+00  0.000E+00  0.000E+00  1.09388E+03  8.328E-01  7.480E+00  3.366E-02  1.278E+00
   1    2    2     1     2    7.8420E+00  1.9811E-01   7.6439E+00  0.000E+00  0.000E+00  0.000E+00  1.08889E+03  8.271E-01  7.395E+00  5.177E-02  1.276E+00
   1    3    3     1     3    7.6439E+00  1.6733E-01   7.4765E+00  0.000E+00  0.000E+00  0.000E+00  1.08324E+03  8.206E-01  7.300E+00  4.380E-02  1.274E+00
   1    3    4     1     4    7.4765E+00  1.5276E-01   7.3238E+00  0.000E+00  0.000E+00  0.000E+00  1.07822E+03  8.148E-01  7.215E+00  4.004E-02  1.272E+00
   1    4    5     2     1    5.3238E+00  2.7067E-01   5.0531E+00  0.000E+00  0.000E+00  0.000E+00  1.07240E+03  4.701E-01  1.200E+01  7.800E-02  1.157E+00
   1    5    6     2     2    5.0531E+00  2.0742E-01   4.8457E+00  0.000E+00  0.000E+00  0.000E+00  1.06697E+03  4.570E-01  1.200E+01  6.000E-02  1.152E+00
   1    6    6     2     3    4.8457E+00  2.0672E-01   4.6390E+00  0.000E+00  0.000E+00  0.000E+00  1.06224E+03  4.454E-01  1.200E+01  6.000E-02  1.148E+00
   1    7    6     2     4    4.6390E+00  2.0602E-01   4.4330E+00  0.000E+00  0.000E+00  0.000E+00  1.05751E+03  4.337E-01  1.200E+01  6.000E-02  1.145E+00
   1    8    6     2     5    4.4330E+00  2.0530E-01   4.2276E+00  0.000E+00  0.000E+00  0.000E+00  1.05278E+03  4.218E-01  1.200E+01  6.000E-02  1.141E+00
   1    3    5     3     1    2.0000E+00  2.8252E-01   1.7175E+00  0.000E+00  0.000E+00  0.000E+00  1.07555E+03  1.909E+00  9.636E+00  7.227E-02  1.955E+00
   1    3    6     3     2    1.7175E+00  2.4905E-01   1.4684E+00  0.000E+00  0.000E+00  0.000E+00  1.07264E+03  1.727E+00  8.909E+00  6.682E-02  1.864E+00
   1    3    7     3     3    1.4684E+00  1.9718E-01   1.2712E+00  0.000E+00  0.000E+00  0.000E+00  1.06987E+03  1.555E+00  8.218E+00  5.547E-02  1.777E+00
   1    4    8     3     4    1.2712E+00  2.2567E-01   1.0456E+00  0.000E+00  0.000E+00  0.000E+00  1.06682E+03  1.364E+00  7.455E+00  6.709E-02  1.682E+00
   1    5    8     3     5    1.0456E+00  1.5790E-01   8.8768E-01  0.000E+00  0.000E+00  0.000E+00  1.06362E+03  1.164E+00  6.655E+00  4.991E-02  1.582E+00
   1    6    8     3     6    8.8768E-01  5.5980E-02   8.3170E-01  0.000E+00  0.000E+00  0.000E+00  1.06158E+03  1.036E+00  6.145E+00  1.844E-02  1.518E+00
   1    5   10     4     1    1.0000E+01  9.0919E-02   9.9091E+00  0.000E+00  0.000E+00  0.000E+00  1.07836E+03  6.368E-01  1.000E+01  2.500E-02  1.212E+00
   1    5    9     4     2    9.9091E+00  1.8158E-01   9.7275E+00  0.000E+00  0.000E+00  0.000E+00  1.07154E+03  6.315E-01  1.000E+01  5.000E-02  1.211E+00
   1    6    8     4     3    9.7275E+00  1.2689E-01   9.6006E+00  0.000E+00  0.000E+00  0.000E+00  1.06381E+03  6.256E-01  1.000E+01  3.500E-02  1.209E+00
   1    6    8     5     1    1.0432E+01  2.2686E-01   1.0205E+01  0.000E+00  0.000E+00  0.000E+00  1.05868E+03  6.790E-01  1.542E+01  6.166E-02  1.226E+00
   1    7    7     5     2    1.0205E+01  2.7894E-01   9.9265E+00  0.000E+00  0.000E+00  0.000E+00  1.05417E+03  6.732E-01  1.519E+01  7.594E-02  1.224E+00
   1    8    7     5     3    9.9265E+00  1.9221E-01   9.7343E+00  0.000E+00  0.000E+00  0.000E+00  1.04992E+03  6.676E-01  1.497E+01  5.241E-02  1.223E+00
   1    8    6     5     4    9.7343E+00  1.3577E-01   9.5985E+00  0.000E+00  0.000E+00  0.000E+00  1.04691E+03  6.637E-01  1.482E+01  3.706E-02  1.221E+00
   1    9    6     6     1    1.3826E+01  2.3109E-01   1.3595E+01  0.000E+00  0.000E+00  0.000E+00  1.04358E+03  8.515E-01  1.200E+01  6.000E-02  1.284E+00
   1   10    7     6     2    1.3595E+01  2.3057E-01   1.3365E+01  0.000E+00  0.000E+00  0.000E+00  1.03902E+03  8.429E-01  1.200E+01  6.000E-02  1.281E+00
   1   11    7     6     3    1.3365E+01  2.3005E-01   1.3134E+01  0.000E+00  0.000E+00  0.000E+00  1.03447E+03  8.342E-01  1.200E+01  6.000E-02  1.278E+00
   1   12    7     6     4    1.3134E+01  2.2953E-01   1.2905E+01  0.000E+00  0.000E+00  0.000E+00  1.02992E+03  8.255E-01  1.200E+01  6.000E-02  1.275E+00
   1   13    7     6     5    1.2905E+01  7.0757E-03   1.2898E+01  0.000E+00  0.000E+00  0.000E+00  1.02673E+03  8.210E-01  1.200E+01  2.400E-02  9.827E-02
   1   14    9     7     1    1.5000E+02  1.4072E+00   1.4859E+02  0.000E+00  0.000E+00  0.000E+00  1.03987E+03  2.288E+00  5.529E+01  5.593E-01  8.387E-01
   1   13    8     7     2    1.4859E+02  2.0482E+00   1.4654E+02  0.000E+00  0.000E+00  0.000E+00  1.03478E+03  2.278E+00  5.525E+01  6.147E-01  1.111E+00
   1   13    7     7     3    1.4654E+02  1.8157E+00   1.4473E+02  0.000E+00  0.000E+00  0.000E+00  1.02969E+03  2.268E+00  5.521E+01  5.583E-01  1.084E+00
   1   13    6     8     1    1.5763E+02  1.1839E+00   1.5644E+02  0.000E+00  0.000E+00  0.000E+00  1.02474E+03  2.866E+00  4.155E+01  4.234E-01  9.320E-01
   1   13    5     8     2    1.5644E+02  4.2542E-01   1.5602E+02  0.000E+00  0.000E+00  0.000E+00  1.01849E+03  2.860E+00  4.147E+01  4.226E-01  3.355E-01
   1   13    4     8     3    1.5602E+02 -1.5673E+00   1.5758E+02  0.000E+00  0.000E+00  0.000E+00  1.01224E+03  2.864E+00  4.153E+01  4.232E+00 -1.235E-01
   1   13    3     8     4    1.5758E+02 -3.2117E+00   1.6080E+02  0.000E+00  0.000E+00  0.000E+00  1.00601E+03  2.880E+00  4.177E+01  4.256E+00 -2.515E-01
   1   13    2     8     5    1.6080E+02 -2.4581E+00   1.6325E+02  0.000E+00  0.000E+00  0.000E+00  9.99774E+02  2.899E+00  4.204E+01  4.284E+00 -1.913E-01
   1   13    1     8     6    1.6325E+02 -1.9433E+00   1.6520E+02  0.000E+00  0.000E+00  0.000E+00  9.94789E+02  2.914E+00  4.226E+01  2.584E+00 -2.507E-01
   1    8    6     9     1    0.0000E+00  0.0000E+00   0.0000E+00  0.000E+00  0.000E+00  0.000E+00  1.07875E+03  0.000E+00  4.000E+00  0.000E+00  1.000E+00
   1    8    5     9     2    0.0000E+00  0.0000E+00   0.0000E+00  0.000E+00  0.000E+00  0.000E+00  1.07825E+03  0.000E+00  4.000E+00  0.000E+00  1.000E+00





UNSATURATED ZONE PACKAGE VOLUMETRIC BUDGET FOR  TIME STEP    30 STRESS PERIOD   47
  ------------------------------------------------------------------------------



     CUMULATIVE VOLUMES      L**3       RATES FOR THIS TIME STEP      L**3/T
     ------------------                 ------------------------

           IN:                                      IN:
           ---                                      ---
        INFILTRATION =  2052204478.2061          INFILTRATION =           0.8475

          OUT:                                     OUT:
          ----                                     ----
              UZF ET =  1703276714.1674                UZF ET =           1.5675
        UZF RECHARGE =    86604717.3914          UZF RECHARGE =          40.2104

            IN - OUT =   262323046.6473              IN - OUT =         -40.9304

          STORAGE:                                 STORAGE:
          --------                                 --------
      STORAGE CHANGE =   262324688.2121        STORAGE CHANGE =         -40.9304

 PERCENT DISCREPANCY IS DIFFERENCE BETWEEN IN-OUT MINUS CHANGE IN STORAGE
 DIVIDED BY THE AVERAGE OF IN AND OUT TIMES 100

 PERCENT DISCREPANCY =          -0.00     PERCENT DISCREPANCY =           0.00






1
  VOLUMETRIC BUDGET FOR AGRICULTURAL FIELDS AT  END OF TIME STEP   30, STRESS PERIOD  47
  ------------------------------------------------------------------------------

     CUMULATIVE VOLUMES      L**3       RATES FOR THIS TIME STEP      L**3/T
     ------------------                 ------------------------

           IN:                                      IN:
           ---                                      ---
               AG WELLS  =  1328487936.0000                 AG WELLS  =           0.0000
      DIVERSION SEGMENTS =   621112512.0000        DIVERSION SEGMENTS =           0.0000
           GW IRRIGATION =           0.0000             GW IRRIGATION =           0.0000
           SW IRRIGATION =           0.0000             SW IRRIGATION =           0.0000
        SYSTEM LOSSES GW =           0.0000          SYSTEM LOSSES GW =           0.0000
        SYSTEM LOSSES SW =           0.0000          SYSTEM LOSSES SW =           0.0000

                TOTAL IN =  1949600512.0000                  TOTAL IN =           0.0000

          OUT:                                     OUT:
          ----                                     ----
               AG WELLS  =           0.0000                 AG WELLS  =           0.0000
      DIVERSION SEGMENTS =           0.0000        DIVERSION SEGMENTS =           0.0000
           GW IRRIGATION =  1328487936.0000             GW IRRIGATION =           0.0000
           SW IRRIGATION =   621124160.0000             SW IRRIGATION =           0.0000
        SYSTEM LOSSES GW =           0.0000          SYSTEM LOSSES GW =           0.0000
        SYSTEM LOSSES SW =           0.0000          SYSTEM LOSSES SW =           0.0000

               TOTAL OUT =  1949612032.0000                 TOTAL OUT =           0.0000

                IN - OUT =      -11520.0000                  IN - OUT =           0.0000

     PERCENT DISCREPANCY =          -0.00         PERCENT DISCREPANCY =           0.00



1
  VOLUMETRIC BUDGET FOR ENTIRE MODEL AT END OF TIME STEP   30, STRESS PERIOD  47
  ------------------------------------------------------------------------------

     CUMULATIVE VOLUMES      L**3       RATES FOR THIS TIME STEP      L**3/T
     ------------------                 ------------------------

           IN:                                      IN:
           ---                                      ---
             STORAGE     =  1899699712.0000               STORAGE     =          11.9973
       CONSTANT HEAD     =           0.0000         CONSTANT HEAD     =           0.0000
     HEAD DEP BOUNDS     =    34967528.0000       HEAD DEP BOUNDS     =           0.2906
      STREAM LEAKAGE     =  1455987968.0000        STREAM LEAKAGE     =          11.9536
        UZF RECHARGE     =    86604728.0000          UZF RECHARGE     =          40.2104
               GW ET     =           0.0000                 GW ET     =           0.0000
     SURFACE LEAKAGE     =           0.0000       SURFACE LEAKAGE     =           0.0000
           AG WELLS      =           0.0000             AG WELLS      =           0.0000

                TOTAL IN =  3477260032.0000                  TOTAL IN =          64.4519

          OUT:                                     OUT:
          ----                                     ----
             STORAGE     =   929113408.0000               STORAGE     =          54.9823
       CONSTANT HEAD     =           0.0000         CONSTANT HEAD     =           0.0000
     HEAD DEP BOUNDS     =    34851244.0000       HEAD DEP BOUNDS     =           0.2866
      STREAM LEAKAGE     =  1184825856.0000        STREAM LEAKAGE     =           9.1805
        UZF RECHARGE     =           0.0000          UZF RECHARGE     =           0.0000
               GW ET     =           0.0000                 GW ET     =           0.0000
     SURFACE LEAKAGE     =           0.0000       SURFACE LEAKAGE     =           0.0000
           AG WELLS      =  1328487936.0000             AG WELLS      =           0.0000

               TOTAL OUT =  3477278464.0000                 TOTAL OUT =          64.4494

                IN - OUT =      -18432.0000                  IN - OUT =       2.4872E-03

     PERCENT DISCREPANCY =          -0.00         PERCENT DISCREPANCY =           0.00






         TIME SUMMARY AT END OF TIME STEP   30 IN STRESS PERIOD   47
                    SECONDS     MINUTES      HOURS       DAYS        YEARS
                    -----------------------------------------------------------
   TIME STEP LENGTH  87667.      1461.1      24.352      1.0147     2.77799E-03
 STRESS PERIOD TIME 2.63000E+06  43833.      730.56      30.440     8.33397E-02
         TOTAL TIME 1.21065E+08 2.01775E+06  33629.      1401.2      3.8363    
1
1
                            STRESS PERIOD NO.   48, LENGTH =   2630000.    
                            -----------------------------------------------

                              NUMBER OF TIME STEPS =    30

                               MULTIPLIER FOR DELT =     1.000

                            INITIAL TIME STEP SIZE =   87666.66    

 REUSING NON-PARAMETER GHB CELLS FROM LAST STRESS PERIOD

      2 GHB CELLS

 REUSING STREAM SEGMENT DATA FROM LAST STRESS PERIOD



            AREAL INFILTRATION RATE
 READING ON UNIT   19 WITH FORMAT: (FREE)              

            1           2           3           4           5           6           7           8           9          10
 ........................................................................................................................
   1   1.0000E-10  2.0000E-10   0.000       0.000       0.000       0.000       0.000       0.000       0.000       0.000    
   2   2.0000E-10  1.0000E-10  2.0000E-10   0.000       0.000      8.0000E-10  8.0000E-10  5.0000E-10   0.000       0.000    
   3    0.000      5.0000E-10  1.0000E-10  1.0000E-10  8.0000E-10  8.0000E-10  5.0000E-10  5.0000E-10   0.000       0.000    
   4   8.0000E-10  5.0000E-10  1.0000E-10  1.0000E-10  1.0000E-10  1.0000E-10  1.0000E-10  1.0000E-10  2.0000E-10   0.000    
   5   8.0000E-10  5.0000E-10  1.0000E-10  1.0000E-10  1.0000E-10  1.0000E-10  1.0000E-10  1.0000E-10  1.0000E-10  1.0000E-10
   6   8.0000E-10  5.0000E-10  5.0000E-10  2.0000E-10  2.0000E-10  1.0000E-10  1.0000E-10  1.0000E-10  1.0000E-10  5.0000E-10
   7   8.0000E-10  5.0000E-10  5.0000E-10  2.0000E-10  2.0000E-10  1.0000E-10  1.0000E-10  2.0000E-10  2.0000E-10   0.000    
   8    0.000      5.0000E-10  5.0000E-10  2.0000E-10  2.0000E-10  1.0000E-10  1.0000E-10  2.0000E-10  5.0000E-10   0.000    
   9    0.000      5.0000E-10  5.0000E-10  2.0000E-10  2.0000E-10  1.0000E-10  1.0000E-10  2.0000E-10  5.0000E-10   0.000    
  10    0.000      5.0000E-10  5.0000E-10  2.0000E-10  2.0000E-10  1.0000E-10  1.0000E-10  2.0000E-10  5.0000E-10  8.0000E-10
  11    0.000      1.0000E-10  1.0000E-10  1.0000E-10  1.0000E-10  1.0000E-10  1.0000E-10  2.0000E-10  5.0000E-10   0.000    
  12   1.0000E-10  1.0000E-10  1.0000E-10  1.0000E-10  1.0000E-10  1.0000E-10  1.0000E-10  1.0000E-10  2.0000E-10   0.000    
  13   1.0000E-10  1.0000E-10  2.0000E-10  2.0000E-10  2.0000E-10  2.0000E-10  2.0000E-10  1.0000E-10  1.0000E-10   0.000    
  14    0.000      2.0000E-10  5.0000E-10  5.0000E-10  5.0000E-10  5.0000E-10  5.0000E-10  2.0000E-10  1.0000E-10   0.000    
  15    0.000       0.000      8.0000E-10  8.0000E-10  8.0000E-10  8.0000E-10   0.000       0.000       0.000       0.000    

                  ET RATE =  5.000000E-10

 USING ET EXTINCTION DEPTH FROM PREVIOUS STRESS PERIOD. CURRENT PERIOD IS:      48

 USING EXTINCTION WATER CONTENT FROM PREVIOUS STRESS PERIOD. CURRENT PERIOD IS:      48

 USING AIR ENTRY PRESSURE FROM PREVIOUS STRESS PERIOD. CURRENT PERIOD IS:      48

 USING ROOT PRESSURE HEAD FROM PREVIOUS STRESS PERIOD. CURRENT PERIOD IS:      48

 USING ROOT ACTIVITY FROM PREVIOUS STRESS PERIOD. CURRENT PERIOD IS:      48

 PROCESSING AG STRESS PERIOD DATA

 READING AG STRESS PERIOD DATA

 READING IRRIGATION SEGMENT

 READING IRRIGATION WELL

 READING SUPPLEMENTAL WELL

 END PROCESSING AG STRESS PERIOD DATA OPTIONS
 
 SOLVING FOR HEAD 
                                                   Max.-Head-Change                         Max.-Flux-Residual
  Residual-Control   Outer-Iter.   Inner-Iter.     Column Row Layer    Maximum-Head-Change  Column Row Layer    Maximum-Flux-Residual          L2-NORM 
          0                 1           2             5    7     1       0.2078706751E+00       5    7    1         0.1139353306E+02      0.1648255786E+02
          0                 2           2             5    7     1       0.8206618664E-01       5    7    1         0.4536449755E+01      0.6235985475E+01
          0                 3           2             5    7     1       0.3239954070E-01       5    7    1         0.1787202413E+01      0.2472000024E+01
          0                 4           2             5    7     1       0.1279141626E-01       5    7    1         0.7057822565E+00      0.9858937117E+00
          0                 5           2             4    8     1       0.5113760956E-02       5    7    1         0.2786397497E+00      0.3932532799E+00
          0                 6           2             4    8     1       0.2061463970E-02       4    8    1         0.1118667115E+00      0.1568965275E+00
          0                 7           2             4    8     1       0.8310107091E-03       4    8    1         0.4509579162E-01      0.6261073226E-01
          0                 8           2             4    8     1       0.3349909704E-03       4    8    1         0.1817884949E-01      0.2499067363E-01
          0                 9           2             4    8     1       0.1350377743E-03       4    8    1         0.7328116890E-02      0.9977017244E-02
          0                10           1             4    8     1       0.5443436993E-04       4    8    1         0.2954024249E-02      0.3983974663E-02

    ------------------------------------------------
       NWT REQUIRED           10 OUTER ITERATIONS 
       AND A TOTAL OF         19 INNER ITERATIONS.
    ------------------------------------------------

 NO OUTPUT CONTROL FOR STRESS PERIOD   48   TIME STEP    1
 
 SOLVING FOR HEAD 
                                                   Max.-Head-Change                         Max.-Flux-Residual
  Residual-Control   Outer-Iter.   Inner-Iter.     Column Row Layer    Maximum-Head-Change  Column Row Layer    Maximum-Flux-Residual          L2-NORM 
          0                 1           2             5    7     1       0.1876963024E+00       5    7    1         0.1025718469E+02      0.1529757579E+02
          0                 2           2             5    7     1       0.7410040828E-01       5    7    1         0.4099237848E+01      0.5709750492E+01
          0                 3           2             5    7     1       0.2925429307E-01       5    7    1         0.1613507554E+01      0.2259857793E+01
          0                 4           2             4    8     1       0.1175110954E-01       4    8    1         0.6377141053E+00      0.9015577031E+00
          0                 5           2             4    8     1       0.4736848242E-02       4    8    1         0.2570595532E+00      0.3596899766E+00
          0                 6           2             4    8     1       0.1909394720E-02       4    8    1         0.1036202467E+00      0.1435384523E+00
          0                 7           2             4    8     1       0.7696577168E-03       4    8    1         0.4176866204E-01      0.5729293590E-01
          0                 8           2             4    8     1       0.3102381960E-03       4    8    1         0.1683650759E-01      0.2287320583E-01
          0                 9           2             4    8     1       0.1250514442E-03       4    8    1         0.6786551846E-02      0.9133678716E-02
          0                10           1             4    8     1       0.5040551172E-04       4    8    1         0.2735534058E-02      0.3648014871E-02

    ------------------------------------------------
       NWT REQUIRED           10 OUTER ITERATIONS 
       AND A TOTAL OF         19 INNER ITERATIONS.
    ------------------------------------------------

 NO OUTPUT CONTROL FOR STRESS PERIOD   48   TIME STEP    2
 
 SOLVING FOR HEAD 
                                                   Max.-Head-Change                         Max.-Flux-Residual
  Residual-Control   Outer-Iter.   Inner-Iter.     Column Row Layer    Maximum-Head-Change  Column Row Layer    Maximum-Flux-Residual          L2-NORM 
          0                 1           2             5    6     1       0.2051285793E+00       5    6    1         0.1112898793E+02      0.1796838930E+02
          0                 2           2             5    6     1       0.8235008508E-01       5    6    1         0.4488008237E+01      0.6935426754E+01
          0                 3           2             5    6     1       0.3306244942E-01       5    6    1         0.1799800500E+01      0.2777144743E+01
          0                 4           2             5    6     1       0.1327518394E-01       5    6    1         0.7227407509E+00      0.1118118079E+01
          0                 5           2             5    6     1       0.5330650255E-02       5    6    1         0.2901908311E+00      0.4500835311E+00
          0                 6           2             5    6     1       0.2140684545E-02       5    6    1         0.1165286040E+00      0.1811828465E+00
          0                 7           2             5    6     1       0.8597196040E-03       5    6    1         0.4679626139E-01      0.7293613559E-01
          0                 8           2             5    6     1       0.3452960033E-03       5    6    1         0.1879410868E-01      0.2936108968E-01
          0                 9           2             5    6     1       0.1386933948E-03       5    6    1         0.7548531950E-02      0.1181965437E-01
          0                10           1             5    6     1       0.5571194602E-04       5    6    1         0.3032023618E-02      0.4758175450E-02

    ------------------------------------------------
       NWT REQUIRED           10 OUTER ITERATIONS 
       AND A TOTAL OF         19 INNER ITERATIONS.
    ------------------------------------------------

 NO OUTPUT CONTROL FOR STRESS PERIOD   48   TIME STEP    3
 
 SOLVING FOR HEAD 
                                                   Max.-Head-Change                         Max.-Flux-Residual
  Residual-Control   Outer-Iter.   Inner-Iter.     Column Row Layer    Maximum-Head-Change  Column Row Layer    Maximum-Flux-Residual          L2-NORM 
          0                 1           2             5    6     1       0.2141406709E+00       5    6    1         0.1162400334E+02      0.1779442667E+02
          0                 2           2             5    6     1       0.8582151036E-01       5    6    1         0.4684561723E+01      0.6813261619E+01
          0                 3           2             5    6     1       0.3439958500E-01       5    6    1         0.1874941389E+01      0.2724648247E+01
          0                 4           2             5    6     1       0.1379013420E-01       5    6    1         0.7517334860E+00      0.1096645334E+01
          0                 5           2             5    6     1       0.5528913488E-02       5    6    1         0.3013517352E+00      0.4412905439E+00
          0                 6           2             5    6     1       0.2216997592E-02       5    6    1         0.1208258668E+00      0.1775886440E+00
          0                 7           2             5    6     1       0.8890844492E-03       5    6    1         0.4845018006E-01      0.7146830994E-01
          0                 8           2             5    6     1       0.3565919123E-03       5    6    1         0.1943049234E-01      0.2876222772E-01
          0                 9           2             5    6     1       0.1430372056E-03       5    6    1         0.7793316263E-02      0.1157552713E-01
          0                10           1             5    6     1       0.5738177139E-04       5    6    1         0.3126148273E-02      0.4658734094E-02

    ------------------------------------------------
       NWT REQUIRED           10 OUTER ITERATIONS 
       AND A TOTAL OF         19 INNER ITERATIONS.
    ------------------------------------------------

 NO OUTPUT CONTROL FOR STRESS PERIOD   48   TIME STEP    4
 
 SOLVING FOR HEAD 
                                                   Max.-Head-Change                         Max.-Flux-Residual
  Residual-Control   Outer-Iter.   Inner-Iter.     Column Row Layer    Maximum-Head-Change  Column Row Layer    Maximum-Flux-Residual          L2-NORM 
          0                 1           2             5    6     1       0.1969915601E+00       5    6    1         0.1067267286E+02      0.1851599366E+02
          0                 2           2             5    6     1       0.7901863949E-01       5    6    1         0.4311460788E+01      0.7418847190E+01
          0                 3           2             5    6     1       0.3171108328E-01       5    6    1         0.1726512091E+01      0.3025797347E+01
          0                 4           2             5    6     1       0.1273181431E-01       5    6    1         0.6930937155E+00      0.1238401304E+01
          0                 5           2             4    7     1       0.5116317286E-02       5    6    1         0.2782919104E+00      0.5069507896E+00
          0                 6           2             4    7     1       0.2116807688E-02       4    7    1         0.1125034231E+00      0.2075976679E+00
          0                 7           2             4    7     1       0.8756862024E-03       4    7    1         0.4654564396E-01      0.8503736499E-01
          0                 8           2             4    7     1       0.3622080891E-03       4    7    1         0.1925464116E-01      0.3484345479E-01
          0                 9           2             4    7     1       0.1497993591E-03       4    7    1         0.7964053965E-02      0.1428066323E-01
          0                10           1             4    7     1       0.6194465144E-04       4    7    1         0.3293631856E-02      0.5854420545E-02

    ------------------------------------------------
       NWT REQUIRED           10 OUTER ITERATIONS 
       AND A TOTAL OF         19 INNER ITERATIONS.
    ------------------------------------------------

 NO OUTPUT CONTROL FOR STRESS PERIOD   48   TIME STEP    5
 
 SOLVING FOR HEAD 
                                                   Max.-Head-Change                         Max.-Flux-Residual
  Residual-Control   Outer-Iter.   Inner-Iter.     Column Row Layer    Maximum-Head-Change  Column Row Layer    Maximum-Flux-Residual          L2-NORM 
          0                 1           2             4    7     1       0.2747418608E+00       4    7    1         0.1475831153E+02      0.2005557921E+02
          0                 2           2             4    7     1       0.1116183446E+00       4    7    1         0.6025849473E+01      0.7945560106E+01
          0                 3           2             4    7     1       0.4533637317E-01       4    7    1         0.2445190949E+01      0.3223767828E+01
          0                 4           2             4    7     1       0.1841882106E-01       4    7    1         0.9933123824E+00      0.1312559042E+01
          0                 5           2             4    7     1       0.7485019232E-02       4    7    1         0.4035698353E+00      0.5344897326E+00
          0                 6           2             4    7     1       0.3042535478E-02       4    7    1         0.1640112244E+00      0.2177102156E+00
          0                 7           2             4    7     1       0.1237042064E-02       4    7    1         0.6667118361E-01      0.8869868464E-01
          0                 8           2             4    7     1       0.5030763918E-03       4    7    1         0.2710864560E-01      0.3614474510E-01
          0                 9           2             4    7     1       0.2046344972E-03       4    7    1         0.1102496005E-01      0.1473171578E-01
          0                10           1             4    7     1       0.8325574381E-04       4    7    1         0.4484774847E-02      0.6005280420E-02

    ------------------------------------------------
       NWT REQUIRED           10 OUTER ITERATIONS 
       AND A TOTAL OF         19 INNER ITERATIONS.
    ------------------------------------------------

 NO OUTPUT CONTROL FOR STRESS PERIOD   48   TIME STEP    6
 
 SOLVING FOR HEAD 
                                                   Max.-Head-Change                         Max.-Flux-Residual
  Residual-Control   Outer-Iter.   Inner-Iter.     Column Row Layer    Maximum-Head-Change  Column Row Layer    Maximum-Flux-Residual          L2-NORM 
          0                 1           2             4    7     1       0.2563941469E+00       4    7    1         0.1381179934E+02      0.1910592491E+02
          0                 2           2             4    7     1       0.1041425469E+00       4    7    1         0.5619571320E+01      0.7464922575E+01
          0                 3           2             4    7     1       0.4231158596E-01       4    7    1         0.2281604804E+01      0.3025046359E+01
          0                 4           2             4    7     1       0.1719477669E-01       4    7    1         0.9270694743E+00      0.1231450765E+01
          0                 5           2             4    7     1       0.6989309089E-02       4    7    1         0.3767663297E+00      0.5013752689E+00
          0                 6           2             4    7     1       0.2841626381E-02       4    7    1         0.1531541896E+00      0.2041730307E+00
          0                 7           2             4    7     1       0.1155552148E-02       4    7    1         0.6227022753E-01      0.8315905874E-01
          0                 8           2             4    7     1       0.4699991074E-03       4    7    1         0.2532331864E-01      0.3387572226E-01
          0                 9           2             4    7     1       0.1911986081E-03       4    7    1         0.1030017866E-01      0.1380156283E-01
          0                10           1             4    7     1       0.7779436434E-04       4    7    1         0.4190329439E-02      0.5623700894E-02

    ------------------------------------------------
       NWT REQUIRED           10 OUTER ITERATIONS 
       AND A TOTAL OF         19 INNER ITERATIONS.
    ------------------------------------------------

 NO OUTPUT CONTROL FOR STRESS PERIOD   48   TIME STEP    7
 
 SOLVING FOR HEAD 
                                                   Max.-Head-Change                         Max.-Flux-Residual
  Residual-Control   Outer-Iter.   Inner-Iter.     Column Row Layer    Maximum-Head-Change  Column Row Layer    Maximum-Flux-Residual          L2-NORM 
          0                 1           2             4    7     1       0.2381677272E+00       4    7    1         0.1288934772E+02      0.1670712962E+02
          0                 2           2             4    7     1       0.9566464957E-01       4    7    1         0.5209928505E+01      0.6248428299E+01
          0                 3           2             4    7     1       0.3841934120E-01       4    7    1         0.2091114139E+01      0.2482801263E+01
          0                 4           2             4    7     1       0.1542824054E-01       4    7    1         0.8398395187E+00      0.9926883208E+00
          0                 5           2             4    7     1       0.6195523756E-02       4    7    1         0.3372565088E+00      0.3969043632E+00
          0                 6           2             4    7     1       0.2487922053E-02       4    7    1         0.1354320264E+00      0.1587108716E+00
          0                 7           2             4    7     1       0.9990627710E-03       4    7    1         0.5438510326E-01      0.6346991110E-01
          0                 8           2             4    7     1       0.4011862852E-03       4    7    1         0.2183914180E-01      0.2538452900E-01
          0                 9           1             4    7     1       0.1611004304E-03       4    7    1         0.8769775606E-02      0.1015335869E-01
          0                10           1             4    7     1       0.6469112844E-04       4    7    1         0.3521589249E-02      0.4061523909E-02

    ------------------------------------------------
       NWT REQUIRED           10 OUTER ITERATIONS 
       AND A TOTAL OF         18 INNER ITERATIONS.
    ------------------------------------------------

 NO OUTPUT CONTROL FOR STRESS PERIOD   48   TIME STEP    8
 
 SOLVING FOR HEAD 
                                                   Max.-Head-Change                         Max.-Flux-Residual
  Residual-Control   Outer-Iter.   Inner-Iter.     Column Row Layer    Maximum-Head-Change  Column Row Layer    Maximum-Flux-Residual          L2-NORM 
          0                 1           2             4    7     1       0.2184178188E+00       4    7    1         0.1188084995E+02      0.1561050515E+02
          0                 2           2             4    7     1       0.8769317237E-01       4    7    1         0.4775711353E+01      0.5710064336E+01
          0                 3           2             4    7     1       0.3520748711E-01       4    7    1         0.1916753253E+01      0.2263589321E+01
          0                 4           2             4    7     1       0.1413522447E-01       4    7    1         0.7695615092E+00      0.9042789562E+00
          0                 5           2             4    7     1       0.5675027064E-02       4    7    1         0.3089711690E+00      0.3613247479E+00
          0                 6           2             4    7     1       0.2278403543E-02       4    7    1         0.1240455937E+00      0.1443918432E+00
          0                 7           2             4    7     1       0.9147255861E-03       4    7    1         0.4980171356E-01      0.5770862206E-01
          0                 8           2             4    7     1       0.3672387491E-03       4    7    1         0.1999420496E-01      0.2306687430E-01
          0                 9           1             4    7     1       0.1474360516E-03       4    7    1         0.8027153207E-02      0.9221176231E-02
          0                10           1             4    7     1       0.5919111006E-04       4    7    1         0.3222674602E-02      0.3686653485E-02

    ------------------------------------------------
       NWT REQUIRED           10 OUTER ITERATIONS 
       AND A TOTAL OF         18 INNER ITERATIONS.
    ------------------------------------------------

 NO OUTPUT CONTROL FOR STRESS PERIOD   48   TIME STEP    9
 
 SOLVING FOR HEAD 
                                                   Max.-Head-Change                         Max.-Flux-Residual
  Residual-Control   Outer-Iter.   Inner-Iter.     Column Row Layer    Maximum-Head-Change  Column Row Layer    Maximum-Flux-Residual          L2-NORM 
          0                 1           2             4    7     1       0.2006485296E+00       4    7    1         0.1089296016E+02      0.1446671352E+02
          0                 2           2             4    7     1       0.8038289298E-01       4    7    1         0.4386812087E+01      0.5230282935E+01
          0                 3           2             4    7     1       0.3220541200E-01       4    7    1         0.1756090725E+01      0.2065624363E+01
          0                 4           2             4    7     1       0.1290305990E-01       4    7    1         0.7036546820E+00      0.8236317641E+00
          0                 5           2             4    7     1       0.5169568662E-02       4    7    1         0.2819198032E+00      0.3284468294E+00
          0                 6           2             4    7     1       0.2071159195E-02       4    7    1         0.1129500121E+00      0.1309944271E+00
          0                 7           2             4    7     1       0.8297938036E-03       4    7    1         0.4525282001E-01      0.5225065409E-01
          0                 8           2             4    7     1       0.3324485447E-03       4    7    1         0.1813017852E-01      0.2084394377E-01
          0                 9           1             4    7     1       0.1331914189E-03       4    7    1         0.7263669610E-02      0.8316041925E-02
          0                10           1             4    7     1       0.5336121410E-04       4    7    1         0.2910097996E-02      0.3318187928E-02

    ------------------------------------------------
       NWT REQUIRED           10 OUTER ITERATIONS 
       AND A TOTAL OF         18 INNER ITERATIONS.
    ------------------------------------------------

 NO OUTPUT CONTROL FOR STRESS PERIOD   48   TIME STEP   10
 
 SOLVING FOR HEAD 
                                                   Max.-Head-Change                         Max.-Flux-Residual
  Residual-Control   Outer-Iter.   Inner-Iter.     Column Row Layer    Maximum-Head-Change  Column Row Layer    Maximum-Flux-Residual          L2-NORM 
          0                 1           2             4    7     1       0.1851398250E+00       4    7    1         0.9992447653E+01      0.1539621615E+02
          0                 2           2             4    7     1       0.7534157095E-01       4    7    1         0.4055866594E+01      0.6055695084E+01
          0                 3           2             4    7     1       0.3066801396E-01       4    7    1         0.1651450737E+01      0.2470714183E+01
          0                 4           2             4    7     1       0.1248671711E-01       4    7    1         0.6722040151E+00      0.1011051954E+01
          0                 5           2             4    7     1       0.5085319376E-02       4    7    1         0.2737120871E+00      0.4138165603E+00
          0                 6           2             4    7     1       0.2071531590E-02       4    7    1         0.1114766309E+00      0.1693933288E+00
          0                 7           2             4    7     1       0.8440427898E-03       4    7    1         0.4541274670E-01      0.6934814923E-01
          0                 8           2             4    6     1       0.3439812156E-03       4    7    1         0.1850419405E-01      0.2839344827E-01
          0                 9           2             4    6     1       0.1418978864E-03       4    6    1         0.7560027626E-02      0.1162630723E-01
          0                10           1             4    6     1       0.5851337492E-04       4    6    1         0.3118395866E-02      0.4761039996E-02

    ------------------------------------------------
       NWT REQUIRED           10 OUTER ITERATIONS 
       AND A TOTAL OF         19 INNER ITERATIONS.
    ------------------------------------------------

 NO OUTPUT CONTROL FOR STRESS PERIOD   48   TIME STEP   11
 
 SOLVING FOR HEAD 
                                                   Max.-Head-Change                         Max.-Flux-Residual
  Residual-Control   Outer-Iter.   Inner-Iter.     Column Row Layer    Maximum-Head-Change  Column Row Layer    Maximum-Flux-Residual          L2-NORM 
          0                 1           2             4    6     1       0.2690845460E+00       4    6    1         0.1458925942E+02      0.1830375417E+02
          0                 2           2             4    6     1       0.1089994881E+00       4    6    1         0.5888369405E+01      0.7041019314E+01
          0                 3           2             4    6     1       0.4418443966E-01       4    6    1         0.2387240859E+01      0.2860516140E+01
          0                 4           2             4    6     1       0.1791366935E-01       4    6    1         0.9676755572E+00      0.1164431920E+01
          0                 5           2             4    6     1       0.7263872661E-02       4    6    1         0.3923415452E+00      0.4741019462E+00
          0                 6           2             4    6     1       0.2937234487E-02       4    6    1         0.1590964956E+00      0.1761292663E+00
          0                 7           2             4    6     1       0.1179773036E-02       4    6    1         0.6428774182E-01      0.6435139905E-01
          0                 8           2             4    6     1       0.4729242562E-03       4    6    1         0.2578340963E-01      0.2578438347E-01
          0                 9           2             4    6     1       0.1895446769E-03       4    6    1         0.1033424735E-01      0.1033442114E-01
          0                10           1             4    6     1       0.7596707757E-04       4    6    1         0.4141848865E-02      0.4141913934E-02

    ------------------------------------------------
       NWT REQUIRED           10 OUTER ITERATIONS 
       AND A TOTAL OF         19 INNER ITERATIONS.
    ------------------------------------------------

 NO OUTPUT CONTROL FOR STRESS PERIOD   48   TIME STEP   12
 
 SOLVING FOR HEAD 
                                                   Max.-Head-Change                         Max.-Flux-Residual
  Residual-Control   Outer-Iter.   Inner-Iter.     Column Row Layer    Maximum-Head-Change  Column Row Layer    Maximum-Flux-Residual          L2-NORM 
          0                 1           2             4    6     1       0.2466854685E+00       4    6    1         0.1350232716E+02      0.1463914244E+02
          0                 2           2             4    6     1       0.9885960551E-01       4    6    1         0.5385494295E+01      0.5415035249E+01
          0                 3           2             4    6     1       0.3955321061E-01       4    6    1         0.2158154880E+01      0.2158496860E+01
          0                 4           2             4    6     1       0.1584008929E-01       4    6    1         0.8641191104E+00      0.8641258470E+00
          0                 5           2             4    6     1       0.6343567925E-02       4    6    1         0.3460724248E+00      0.3460733062E+00
          0                 6           2             4    6     1       0.2540443887E-02       4    6    1         0.1385925485E+00      0.1385929531E+00
          0                 7           2             4    6     1       0.1017385714E-02       4    6    1         0.5550301082E-01      0.5550316811E-01
          0                 8           2             4    6     1       0.4074381308E-03       4    6    1         0.2222759602E-01      0.2222765932E-01
          0                 9           2             4    6     1       0.1631690213E-03       4    6    1         0.8901610029E-02      0.8901635373E-02
          0                10           1             4    6     1       0.6534520821E-04       4    6    1         0.3564877486E-02      0.3564887721E-02

    ------------------------------------------------
       NWT REQUIRED           10 OUTER ITERATIONS 
       AND A TOTAL OF         19 INNER ITERATIONS.
    ------------------------------------------------

 NO OUTPUT CONTROL FOR STRESS PERIOD   48   TIME STEP   13
 
 SOLVING FOR HEAD 
                                                   Max.-Head-Change                         Max.-Flux-Residual
  Residual-Control   Outer-Iter.   Inner-Iter.     Column Row Layer    Maximum-Head-Change  Column Row Layer    Maximum-Flux-Residual          L2-NORM 
          0                 1           2             4    6     1       0.2245890463E+00       4    6    1         0.1228354900E+02      0.1332184255E+02
          0                 2           2             4    6     1       0.8994025106E-01       4    6    1         0.4903959492E+01      0.4930988089E+01
          0                 3           2             4    6     1       0.3601755357E-01       4    6    1         0.1965194061E+01      0.1965511217E+01
          0                 4           2             4    6     1       0.1442364467E-01       4    6    1         0.7868740202E+00      0.7868794425E+00
          0                 5           2             4    6     1       0.5776118333E-02       4    6    1         0.3151233486E+00      0.3151241745E+00
          0                 6           2             4    6     1       0.2313115164E-02       4    6    1         0.1261941849E+00      0.1261945519E+00
          0                 7           2             4    6     1       0.9263145216E-03       4    6    1         0.5053603470E-01      0.5053617811E-01
          0                 8           2             4    6     1       0.3709536990E-03       4    6    1         0.2023775590E-01      0.2023781356E-01
          0                 9           2             4    6     1       0.1485528360E-03       4    6    1         0.8104451609E-02      0.8104474669E-02
          0                10           1             4    6     1       0.5948975653E-04       4    6    1         0.3245524465E-02      0.3245533696E-02

    ------------------------------------------------
       NWT REQUIRED           10 OUTER ITERATIONS 
       AND A TOTAL OF         19 INNER ITERATIONS.
    ------------------------------------------------

 NO OUTPUT CONTROL FOR STRESS PERIOD   48   TIME STEP   14
 
 SOLVING FOR HEAD 
                                                   Max.-Head-Change                         Max.-Flux-Residual
  Residual-Control   Outer-Iter.   Inner-Iter.     Column Row Layer    Maximum-Head-Change  Column Row Layer    Maximum-Flux-Residual          L2-NORM 
          0                 1           2             4    6     1       0.2047143507E+00       4    6    1         0.1118171403E+02      0.1216337541E+02
          0                 2           2             4    6     1       0.8197670619E-01       4    6    1         0.4471407625E+01      0.4496953740E+01
          0                 3           2             4    6     1       0.3282717977E-01       4    6    1         0.1791072212E+01      0.1791380156E+01
          0                 4           2             4    6     1       0.1314550548E-01       4    6    1         0.7171746436E+00      0.7171789335E+00
          0                 5           2             4    6     1       0.5264065065E-02       4    6    1         0.2871963576E+00      0.2871971354E+00
          0                 6           2             4    6     1       0.2107974263E-02       4    6    1         0.1150061831E+00      0.1150065162E+00
          0                 7           2             4    6     1       0.8441301231E-03       4    6    1         0.4605383232E-01      0.4605396322E-01
          0                 8           2             4    6     1       0.3380286481E-03       4    6    1         0.1844207808E-01      0.1844213065E-01
          0                 9           2             4    6     1       0.1353622689E-03       4    6    1         0.7385059645E-02      0.7385080684E-02
          0                10           1             4    6     1       0.5420529886E-04       4    6    1         0.2957318744E-02      0.2957327166E-02

    ------------------------------------------------
       NWT REQUIRED           10 OUTER ITERATIONS 
       AND A TOTAL OF         19 INNER ITERATIONS.
    ------------------------------------------------

 NO OUTPUT CONTROL FOR STRESS PERIOD   48   TIME STEP   15
 
 SOLVING FOR HEAD 
                                                   Max.-Head-Change                         Max.-Flux-Residual
  Residual-Control   Outer-Iter.   Inner-Iter.     Column Row Layer    Maximum-Head-Change  Column Row Layer    Maximum-Flux-Residual          L2-NORM 
          0                 1           2             4    6     1       0.1868516829E+00       4    6    1         0.1019190526E+02      0.1115260054E+02
          0                 2           2             4    6     1       0.7482032186E-01       4    6    1         0.4082668673E+01      0.4107464178E+01
          0                 3           2             4    6     1       0.2996026558E-01       4    6    1         0.1634598737E+01      0.1634905674E+01
          0                 4           2             4    6     1       0.1199694650E-01       4    6    1         0.6545405904E+00      0.6545439238E+00
          0                 5           2             4    6     1       0.4803924051E-02       4    6    1         0.2621004488E+00      0.2621011849E+00
          0                 6           2             4    6     1       0.1923630657E-02       4    6    1         0.1049523929E+00      0.1049526955E+00
          0                 7           2             4    6     1       0.7702776656E-03       4    6    1         0.4202603182E-01      0.4202615152E-01
          0                 8           2             4    6     1       0.3084415979E-03       4    6    1         0.1682844672E-01      0.1682849474E-01
          0                 9           2             4    6     1       0.1235089964E-03       4    6    1         0.6738600645E-02      0.6738619859E-02
          0                10           1             4    6     1       0.4945659842E-04       4    6    1         0.2698332007E-02      0.2698339703E-02

    ------------------------------------------------
       NWT REQUIRED           10 OUTER ITERATIONS 
       AND A TOTAL OF         19 INNER ITERATIONS.
    ------------------------------------------------

 NO OUTPUT CONTROL FOR STRESS PERIOD   48   TIME STEP   16
 
 SOLVING FOR HEAD 
                                                   Max.-Head-Change                         Max.-Flux-Residual
  Residual-Control   Outer-Iter.   Inner-Iter.     Column Row Layer    Maximum-Head-Change  Column Row Layer    Maximum-Flux-Residual          L2-NORM 
          0                 1           2             4    6     1       0.1707891682E+00       4    6    1         0.9302361677E+01      0.1027347220E+02
          0                 2           2             4    6     1       0.6838521578E-01       4    6    1         0.3733020936E+01      0.3757427621E+01
          0                 3           2             4    6     1       0.2738187799E-01       4    6    1         0.1493915451E+01      0.1494223151E+01
          0                 4           2             4    6     1       0.1096390674E-01       4    6    1         0.5982174491E+00      0.5982198362E+00
          0                 5           2             4    6     1       0.4390032656E-02       4    6    1         0.2395315034E+00      0.2395321022E+00
          0                 6           2             4    6     1       0.1757803412E-02       4    6    1         0.9591022721E-01      0.9591046462E-01
          0                 7           2             4    6     1       0.7038383211E-03       4    6    1         0.3840323477E-01      0.3840332911E-01
          0                 8           2             4    6     1       0.2818224173E-03       4    6    1         0.1537695912E-01      0.1537699695E-01
          0                 9           2             4    6     1       0.1128439218E-03       4    6    1         0.6157056315E-02      0.6157071456E-02
          0                10           1             4    6     1       0.4518359806E-04       4    6    1         0.2465334065E-02      0.2465340144E-02

    ------------------------------------------------
       NWT REQUIRED           10 OUTER ITERATIONS 
       AND A TOTAL OF         19 INNER ITERATIONS.
    ------------------------------------------------

 NO OUTPUT CONTROL FOR STRESS PERIOD   48   TIME STEP   17
 
 SOLVING FOR HEAD 
                                                   Max.-Head-Change                         Max.-Flux-Residual
  Residual-Control   Outer-Iter.   Inner-Iter.     Column Row Layer    Maximum-Head-Change  Column Row Layer    Maximum-Flux-Residual          L2-NORM 
          0                 1           2             4    6     1       0.1563378913E+00       4    6    1         0.8502421299E+01      0.9510260339E+01
          0                 2           2             4    6     1       0.6287058264E-01       4    6    1         0.3428210586E+01      0.3453443331E+01
          0                 3           2             4    6     1       0.2522311047E-01       4    6    1         0.1373860538E+01      0.1374183955E+01
          0                 4           2             4    6     1       0.1011931206E-01       4    6    1         0.5512792822E+00      0.5512810877E+00
          0                 5           2             4    6     1       0.4059791654E-02       4    6    1         0.2211657920E+00      0.2211663473E+00
          0                 6           2             4    6     1       0.1628758417E-02       4    6    1         0.8873035347E-01      0.8873056317E-01
          0                 7           2             4    6     1       0.6534459446E-03       4    6    1         0.3559796809E-01      0.3559805220E-01
          0                 8           2             4    6     1       0.2621577423E-03       4    6    1         0.1428164850E-01      0.1428168225E-01
          0                 9           1             4    6     1       0.1051757749E-03       4    6    1         0.5729693527E-02      0.5729707060E-02
          0                10           1             4    6     1       0.4219575466E-04       4    6    1         0.2298711391E-02      0.2298716818E-02

    ------------------------------------------------
       NWT REQUIRED           10 OUTER ITERATIONS 
       AND A TOTAL OF         18 INNER ITERATIONS.
    ------------------------------------------------

 NO OUTPUT CONTROL FOR STRESS PERIOD   48   TIME STEP   18
 
 SOLVING FOR HEAD 
                                                   Max.-Head-Change                         Max.-Flux-Residual
  Residual-Control   Outer-Iter.   Inner-Iter.     Column Row Layer    Maximum-Head-Change  Column Row Layer    Maximum-Flux-Residual          L2-NORM 
          0                 1           2             4    6     1       0.1439059286E+00       4    6    1         0.7800641267E+01      0.8866283884E+01
          0                 2           2             4    6     1       0.9098159622E-02       4    6    1         0.4996097709E+00      0.6495612090E+00
          0                 3           2             4    5     1       0.3106928314E-03       4    5    1         0.1750423346E-01      0.3352990081E-01
          0                 4           1             4    5     1      -0.1182292450E-04       4    5    1        -0.7018742458E-03      0.1320350554E-02

    ------------------------------------------------
       NWT REQUIRED            4 OUTER ITERATIONS 
       AND A TOTAL OF          7 INNER ITERATIONS.
    ------------------------------------------------

 NO OUTPUT CONTROL FOR STRESS PERIOD   48   TIME STEP   19
 
 SOLVING FOR HEAD 
                                                   Max.-Head-Change                         Max.-Flux-Residual
  Residual-Control   Outer-Iter.   Inner-Iter.     Column Row Layer    Maximum-Head-Change  Column Row Layer    Maximum-Flux-Residual          L2-NORM 
          0                 1           2             4    6     1      -0.4861358514E-01       4    6    1        -0.2692836693E+01      0.4947719507E+01
          0                 2           2             4    6     1       0.4731020499E-02       4    6    1         0.2687490289E+00      0.4860840996E+00
          0                 3           2             4    6     1      -0.3224379077E-03       4    6    1        -0.1881263906E-01      0.3397258382E-01
          0                 4           1             4    6     1       0.1281430680E-04       4    6    1         0.7692280226E-03      0.1389792073E-02

    ------------------------------------------------
       NWT REQUIRED            4 OUTER ITERATIONS 
       AND A TOTAL OF          7 INNER ITERATIONS.
    ------------------------------------------------

 NO OUTPUT CONTROL FOR STRESS PERIOD   48   TIME STEP   20
 
 SOLVING FOR HEAD 
                                                   Max.-Head-Change                         Max.-Flux-Residual
  Residual-Control   Outer-Iter.   Inner-Iter.     Column Row Layer    Maximum-Head-Change  Column Row Layer    Maximum-Flux-Residual          L2-NORM 
          0                 1           2             4    6     1      -0.4559337806E-01       4    6    1        -0.2525782520E+01      0.4722886016E+01
          0                 2           2             4    6     1       0.4451280893E-02       4    6    1         0.2525590114E+00      0.4642896747E+00
          0                 3           2             4    6     1      -0.3025652997E-03       4    6    1        -0.1767218463E-01      0.3244597226E-01
          0                 4           1             4    6     1       0.1205762662E-04       4    6    1         0.7232695218E-03      0.1326878291E-02

    ------------------------------------------------
       NWT REQUIRED            4 OUTER ITERATIONS 
       AND A TOTAL OF          7 INNER ITERATIONS.
    ------------------------------------------------

 NO OUTPUT CONTROL FOR STRESS PERIOD   48   TIME STEP   21
 
 SOLVING FOR HEAD 
                                                   Max.-Head-Change                         Max.-Flux-Residual
  Residual-Control   Outer-Iter.   Inner-Iter.     Column Row Layer    Maximum-Head-Change  Column Row Layer    Maximum-Flux-Residual          L2-NORM 
          0                 1           2             4    6     1      -0.4274194774E-01       4    6    1        -0.2368060935E+01      0.4512850092E+01
          0                 2           2             4    6     1       0.4172418184E-02       4    6    1         0.2367891541E+00      0.4442096770E+00
          0                 3           2             4    6     1      -0.2836312890E-03       4    6    1        -0.1656899354E-01      0.3104221997E-01
          0                 4           1             4    6     1       0.1130238519E-04       4    6    1         0.6781009563E-03      0.1269483548E-02

    ------------------------------------------------
       NWT REQUIRED            4 OUTER ITERATIONS 
       AND A TOTAL OF          7 INNER ITERATIONS.
    ------------------------------------------------

 NO OUTPUT CONTROL FOR STRESS PERIOD   48   TIME STEP   22
 
 SOLVING FOR HEAD 
                                                   Max.-Head-Change                         Max.-Flux-Residual
  Residual-Control   Outer-Iter.   Inner-Iter.     Column Row Layer    Maximum-Head-Change  Column Row Layer    Maximum-Flux-Residual          L2-NORM 
          0                 1           2             4    6     1      -0.4006371629E-01       4    6    1        -0.2219983646E+01      0.4317714869E+01
          0                 2           2             4    6     1       0.3910422918E-02       4    6    1         0.2219834470E+00      0.4251781651E+00
          0                 3           2             4    6     1      -0.2658398038E-03       4    6    1        -0.1553321649E-01      0.2971150437E-01
          0                 4           1             4    6     1       0.1059280727E-04       4    6    1         0.6356948747E-03      0.1215076336E-02

    ------------------------------------------------
       NWT REQUIRED            4 OUTER ITERATIONS 
       AND A TOTAL OF          7 INNER ITERATIONS.
    ------------------------------------------------

 NO OUTPUT CONTROL FOR STRESS PERIOD   48   TIME STEP   23
 
 SOLVING FOR HEAD 
                                                   Max.-Head-Change                         Max.-Flux-Residual
  Residual-Control   Outer-Iter.   Inner-Iter.     Column Row Layer    Maximum-Head-Change  Column Row Layer    Maximum-Flux-Residual          L2-NORM 
          0                 1           2             4    6     1      -0.3754749202E-01       4    6    1        -0.2080914579E+01      0.4135637586E+01
          0                 2           2             4    6     1       0.3664351697E-02       4    6    1         0.2080783181E+00      0.4073785152E+00
          0                 3           2             4    6     1      -0.2491271525E-03       4    6    1        -0.1456041026E-01      0.2846673906E-01
          0                 4           1             4    6     1       0.9926340847E-05       4    6    1         0.5958690970E-03      0.1164184084E-02

    ------------------------------------------------
       NWT REQUIRED            4 OUTER ITERATIONS 
       AND A TOTAL OF          7 INNER ITERATIONS.
    ------------------------------------------------

 NO OUTPUT CONTROL FOR STRESS PERIOD   48   TIME STEP   24
 
 SOLVING FOR HEAD 
                                                   Max.-Head-Change                         Max.-Flux-Residual
  Residual-Control   Outer-Iter.   Inner-Iter.     Column Row Layer    Maximum-Head-Change  Column Row Layer    Maximum-Flux-Residual          L2-NORM 
          0                 1           2             4    6     1      -0.3518235593E-01       4    6    1        -0.1950243753E+01      0.3965666763E+01
          0                 2           2             4    6     1       0.3433127297E-02       4    6    1         0.1950127996E+00      0.3907261544E+00
          0                 3           2             4    6     1      -0.2334204893E-03       4    6    1        -0.1364631347E-01      0.2730204342E-01
          0                 4           1             4    6     1       0.9300070072E-05       4    6    1         0.5584488806E-03      0.1116560447E-02

    ------------------------------------------------
       NWT REQUIRED            4 OUTER ITERATIONS 
       AND A TOTAL OF          7 INNER ITERATIONS.
    ------------------------------------------------

 NO OUTPUT CONTROL FOR STRESS PERIOD   48   TIME STEP   25
 
 SOLVING FOR HEAD 
                                                   Max.-Head-Change                         Max.-Flux-Residual
  Residual-Control   Outer-Iter.   Inner-Iter.     Column Row Layer    Maximum-Head-Change  Column Row Layer    Maximum-Flux-Residual          L2-NORM 
          0                 1           2             4    5     1       0.3331127006E-01       4    6    1        -0.1827420499E+01      0.3806927742E+01
          0                 2           2             4    5     1      -0.3240090976E-02       4    6    1         0.1827318511E+00      0.3751426925E+00
          0                 3           2             4    5     1       0.2206432925E-03       4    6    1        -0.1278707918E-01      0.2621197051E-01
          0                 4           1             4    5     1      -0.8779448557E-05       4    6    1         0.5232765004E-03      0.1071986839E-02

    ------------------------------------------------
       NWT REQUIRED            4 OUTER ITERATIONS 
       AND A TOTAL OF          7 INNER ITERATIONS.
    ------------------------------------------------

 NO OUTPUT CONTROL FOR STRESS PERIOD   48   TIME STEP   26
 
 SOLVING FOR HEAD 
                                                   Max.-Head-Change                         Max.-Flux-Residual
  Residual-Control   Outer-Iter.   Inner-Iter.     Column Row Layer    Maximum-Head-Change  Column Row Layer    Maximum-Flux-Residual          L2-NORM 
          0                 1           2             4    5     1       0.3167446186E-01       4    5    1         0.1730808099E+01      0.3658606475E+01
          0                 2           2             4    5     1      -0.3080893229E-02       4    5    1        -0.1730778997E+00      0.3605545552E+00
          0                 3           2             4    5     1       0.2098020281E-03       4    5    1         0.1211548591E-01      0.2519139345E-01
          0                 4           1             4    5     1      -0.8348079484E-05       4    5    1        -0.4955239410E-03      0.1030253016E-02

    ------------------------------------------------
       NWT REQUIRED            4 OUTER ITERATIONS 
       AND A TOTAL OF          7 INNER ITERATIONS.
    ------------------------------------------------

 NO OUTPUT CONTROL FOR STRESS PERIOD   48   TIME STEP   27
 
 SOLVING FOR HEAD 
                                                   Max.-Head-Change                         Max.-Flux-Residual
  Residual-Control   Outer-Iter.   Inner-Iter.     Column Row Layer    Maximum-Head-Change  Column Row Layer    Maximum-Flux-Residual          L2-NORM 
          0                 1           2             4    5     1       0.3013511572E-01       4    5    1         0.1645764197E+01      0.3519973812E+01
          0                 2           2             4    5     1      -0.2931173519E-02       4    5    1        -0.1645738887E+00      0.3468957457E+00
          0                 3           2             4    5     1       0.1996062429E-03       4    5    1         0.1152020126E-01      0.2423573182E-01
          0                 4           1             4    5     1      -0.7942392616E-05       4    5    1        -0.4711767788E-03      0.9911711781E-03

    ------------------------------------------------
       NWT REQUIRED            4 OUTER ITERATIONS 
       AND A TOTAL OF          7 INNER ITERATIONS.
    ------------------------------------------------

 NO OUTPUT CONTROL FOR STRESS PERIOD   48   TIME STEP   28
 
 SOLVING FOR HEAD 
                                                   Max.-Head-Change                         Max.-Flux-Residual
  Residual-Control   Outer-Iter.   Inner-Iter.     Column Row Layer    Maximum-Head-Change  Column Row Layer    Maximum-Flux-Residual          L2-NORM 
          0                 1           2             4    5     1       0.2868704056E-01       4    5    1         0.1565781054E+01      0.3390335005E+01
          0                 2           2             4    5     1      -0.2790333818E-02       4    5    1        -0.1565764711E+00      0.3341033120E+00
          0                 3           2             4    5     1       0.1900143296E-03       4    5    1         0.1096031971E-01      0.2334055759E-01
          0                 4           1             4    5     1      -0.7560737022E-05       4    5    1        -0.4482778838E-03      0.9545728039E-03

    ------------------------------------------------
       NWT REQUIRED            4 OUTER ITERATIONS 
       AND A TOTAL OF          7 INNER ITERATIONS.
    ------------------------------------------------

 NO OUTPUT CONTROL FOR STRESS PERIOD   48   TIME STEP   29
 
 SOLVING FOR HEAD 
                                                   Max.-Head-Change                         Max.-Flux-Residual
  Residual-Control   Outer-Iter.   Inner-Iter.     Column Row Layer    Maximum-Head-Change  Column Row Layer    Maximum-Flux-Residual          L2-NORM 
          0                 1           2             4    5     1       0.2732442173E-01       4    5    1         0.1490537395E+01      0.3269058646E+01
          0                 2           2             4    5     1      -0.2657876830E-02       4    5    1        -0.1490573710E+00      0.3221225608E+00
          0                 3           2             4    5     1       0.1809942716E-03       4    5    1         0.1043398609E-01      0.2250214709E-01
          0                 4           1             4    5     1      -0.7201829606E-05       4    5    1        -0.4267507811E-03      0.9202789570E-03

    ------------------------------------------------
       NWT REQUIRED            4 OUTER ITERATIONS 
       AND A TOTAL OF          7 INNER ITERATIONS.
    ------------------------------------------------

 NO OUTPUT CONTROL FOR STRESS PERIOD   48   TIME STEP   30



 STREAM LISTING     PERIOD     48   STEP       30

 LAYER ROW COL. STREAM  RCH.  FLOW INTO     FLOW TO   FLOW OUT OF   OVRLND.     DIRECT     STREAM       STREAM     STREAM     STREAM   STREAMBED  STREAMBED
                SEG.NO.  NO.  STRM. RCH.    AQUIFER    STRM. RCH.    RUNOFF     PRECIP       ET          HEAD       DEPTH      WIDTH   CONDCTNC.   GRADIENT

   1    1    1     1     1    7.8748E+00  1.2804E-01   7.7467E+00  0.000E+00  0.000E+00  0.000E+00  1.09388E+03  8.295E-01  7.430E+00  3.344E-02  1.276E+00
   1    2    2     1     2    7.7467E+00  1.9662E-01   7.5501E+00  0.000E+00  0.000E+00  0.000E+00  1.08888E+03  8.237E-01  7.346E+00  5.142E-02  1.275E+00
   1    3    3     1     3    7.5501E+00  1.6606E-01   7.3840E+00  0.000E+00  0.000E+00  0.000E+00  1.08324E+03  8.172E-01  7.251E+00  4.350E-02  1.272E+00
   1    3    4     1     4    7.3840E+00  1.5159E-01   7.2324E+00  0.000E+00  0.000E+00  0.000E+00  1.07822E+03  8.115E-01  7.166E+00  3.977E-02  1.270E+00
   1    4    5     2     1    5.2324E+00  2.7028E-01   4.9622E+00  0.000E+00  0.000E+00  0.000E+00  1.07240E+03  4.651E-01  1.200E+01  7.800E-02  1.155E+00
   1    5    6     2     2    4.9622E+00  2.0711E-01   4.7551E+00  0.000E+00  0.000E+00  0.000E+00  1.06696E+03  4.519E-01  1.200E+01  6.000E-02  1.151E+00
   1    6    6     2     3    4.7551E+00  2.0642E-01   4.5486E+00  0.000E+00  0.000E+00  0.000E+00  1.06223E+03  4.403E-01  1.200E+01  6.000E-02  1.147E+00
   1    7    6     2     4    4.5486E+00  2.0571E-01   4.3429E+00  0.000E+00  0.000E+00  0.000E+00  1.05750E+03  4.285E-01  1.200E+01  6.000E-02  1.143E+00
   1    8    6     2     5    4.3429E+00  2.0499E-01   4.1379E+00  0.000E+00  0.000E+00  0.000E+00  1.05278E+03  4.165E-01  1.200E+01  6.000E-02  1.139E+00
   1    3    5     3     1    2.0000E+00  2.8252E-01   1.7175E+00  0.000E+00  0.000E+00  0.000E+00  1.07555E+03  1.909E+00  9.636E+00  7.227E-02  1.955E+00
   1    3    6     3     2    1.7175E+00  2.4905E-01   1.4684E+00  0.000E+00  0.000E+00  0.000E+00  1.07264E+03  1.727E+00  8.909E+00  6.682E-02  1.864E+00
   1    3    7     3     3    1.4684E+00  1.9718E-01   1.2712E+00  0.000E+00  0.000E+00  0.000E+00  1.06987E+03  1.555E+00  8.218E+00  5.547E-02  1.777E+00
   1    4    8     3     4    1.2712E+00  2.2567E-01   1.0456E+00  0.000E+00  0.000E+00  0.000E+00  1.06682E+03  1.364E+00  7.455E+00  6.709E-02  1.682E+00
   1    5    8     3     5    1.0456E+00  1.5790E-01   8.8768E-01  0.000E+00  0.000E+00  0.000E+00  1.06362E+03  1.164E+00  6.655E+00  4.991E-02  1.582E+00
   1    6    8     3     6    8.8768E-01  5.5980E-02   8.3170E-01  0.000E+00  0.000E+00  0.000E+00  1.06158E+03  1.036E+00  6.145E+00  1.844E-02  1.518E+00
   1    5   10     4     1    1.0000E+01  9.0919E-02   9.9091E+00  0.000E+00  0.000E+00  0.000E+00  1.07836E+03  6.368E-01  1.000E+01  2.500E-02  1.212E+00
   1    5    9     4     2    9.9091E+00  1.8158E-01   9.7275E+00  0.000E+00  0.000E+00  0.000E+00  1.07154E+03  6.315E-01  1.000E+01  5.000E-02  1.211E+00
   1    6    8     4     3    9.7275E+00  1.2689E-01   9.6006E+00  0.000E+00  0.000E+00  0.000E+00  1.06381E+03  6.256E-01  1.000E+01  3.500E-02  1.209E+00
   1    6    8     5     1    1.0432E+01  2.2686E-01   1.0205E+01  0.000E+00  0.000E+00  0.000E+00  1.05868E+03  6.790E-01  1.542E+01  6.166E-02  1.226E+00
   1    7    7     5     2    1.0205E+01  2.7894E-01   9.9265E+00  0.000E+00  0.000E+00  0.000E+00  1.05417E+03  6.732E-01  1.519E+01  7.594E-02  1.224E+00
   1    8    7     5     3    9.9265E+00  1.9221E-01   9.7343E+00  0.000E+00  0.000E+00  0.000E+00  1.04992E+03  6.676E-01  1.497E+01  5.241E-02  1.223E+00
   1    8    6     5     4    9.7343E+00  1.3577E-01   9.5985E+00  0.000E+00  0.000E+00  0.000E+00  1.04691E+03  6.637E-01  1.482E+01  3.706E-02  1.221E+00
   1    9    6     6     1    1.3736E+01  2.3089E-01   1.3506E+01  0.000E+00  0.000E+00  0.000E+00  1.04358E+03  8.482E-01  1.200E+01  6.000E-02  1.283E+00
   1   10    7     6     2    1.3506E+01  2.3037E-01   1.3275E+01  0.000E+00  0.000E+00  0.000E+00  1.03902E+03  8.396E-01  1.200E+01  6.000E-02  1.280E+00
   1   11    7     6     3    1.3275E+01  2.2985E-01   1.3045E+01  0.000E+00  0.000E+00  0.000E+00  1.03447E+03  8.309E-01  1.200E+01  6.000E-02  1.277E+00
   1   12    7     6     4    1.3045E+01  2.2933E-01   1.2816E+01  0.000E+00  0.000E+00  0.000E+00  1.02991E+03  8.221E-01  1.200E+01  6.000E-02  1.274E+00
   1   13    7     6     5    1.2816E+01  7.2394E-03   1.2809E+01  0.000E+00  0.000E+00  0.000E+00  1.02673E+03  8.176E-01  1.200E+01  2.400E-02  1.005E-01
   1   14    9     7     1    1.5000E+02  1.4083E+00   1.4859E+02  0.000E+00  0.000E+00  0.000E+00  1.03987E+03  2.288E+00  5.529E+01  5.593E-01  8.393E-01
   1   13    8     7     2    1.4859E+02  2.0508E+00   1.4654E+02  0.000E+00  0.000E+00  0.000E+00  1.03478E+03  2.278E+00  5.525E+01  6.147E-01  1.112E+00
   1   13    7     7     3    1.4654E+02  1.8214E+00   1.4472E+02  0.000E+00  0.000E+00  0.000E+00  1.02969E+03  2.268E+00  5.521E+01  5.583E-01  1.087E+00
   1   13    6     8     1    1.5753E+02  1.1904E+00   1.5634E+02  0.000E+00  0.000E+00  0.000E+00  1.02474E+03  2.865E+00  4.154E+01  4.233E-01  9.373E-01
   1   13    5     8     2    1.5634E+02  4.3349E-01   1.5590E+02  0.000E+00  0.000E+00  0.000E+00  1.01848E+03  2.859E+00  4.146E+01  4.225E-01  3.420E-01
   1   13    4     8     3    1.5590E+02 -1.5405E+00   1.5744E+02  0.000E+00  0.000E+00  0.000E+00  1.01224E+03  2.863E+00  4.152E+01  4.231E+00 -1.214E-01
   1   13    3     8     4    1.5744E+02 -3.2052E+00   1.6065E+02  0.000E+00  0.000E+00  0.000E+00  1.00600E+03  2.879E+00  4.175E+01  4.255E+00 -2.511E-01
   1   13    2     8     5    1.6065E+02 -2.4649E+00   1.6311E+02  0.000E+00  0.000E+00  0.000E+00  9.99774E+02  2.899E+00  4.203E+01  4.283E+00 -1.918E-01
   1   13    1     8     6    1.6311E+02 -1.9491E+00   1.6506E+02  0.000E+00  0.000E+00  0.000E+00  9.94788E+02  2.913E+00  4.224E+01  2.583E+00 -2.515E-01
   1    8    6     9     1    0.0000E+00  0.0000E+00   0.0000E+00  0.000E+00  0.000E+00  0.000E+00  1.07875E+03  0.000E+00  4.000E+00  0.000E+00  1.000E+00
   1    8    5     9     2    0.0000E+00  0.0000E+00   0.0000E+00  0.000E+00  0.000E+00  0.000E+00  1.07825E+03  0.000E+00  4.000E+00  0.000E+00  1.000E+00





UNSATURATED ZONE PACKAGE VOLUMETRIC BUDGET FOR  TIME STEP    30 STRESS PERIOD   48
  ------------------------------------------------------------------------------



     CUMULATIVE VOLUMES      L**3       RATES FOR THIS TIME STEP      L**3/T
     ------------------                 ------------------------

           IN:                                      IN:
           ---                                      ---
        INFILTRATION =  2054433403.0789          INFILTRATION =           0.8475

          OUT:                                     OUT:
          ----                                     ----
              UZF ET =  1705249355.8998                UZF ET =           0.7500
        UZF RECHARGE =   147876924.3014          UZF RECHARGE =           0.1104

            IN - OUT =   201307122.8777              IN - OUT =      -1.2897E-02

          STORAGE:                                 STORAGE:
          --------                                 --------
      STORAGE CHANGE =   201308764.2584        STORAGE CHANGE =      -1.2897E-02

 PERCENT DISCREPANCY IS DIFFERENCE BETWEEN IN-OUT MINUS CHANGE IN STORAGE
 DIVIDED BY THE AVERAGE OF IN AND OUT TIMES 100

 PERCENT DISCREPANCY =          -0.00     PERCENT DISCREPANCY =           0.00






1
  VOLUMETRIC BUDGET FOR AGRICULTURAL FIELDS AT  END OF TIME STEP   30, STRESS PERIOD  48
  ------------------------------------------------------------------------------

     CUMULATIVE VOLUMES      L**3       RATES FOR THIS TIME STEP      L**3/T
     ------------------                 ------------------------

           IN:                                      IN:
           ---                                      ---
               AG WELLS  =  1328487936.0000                 AG WELLS  =           0.0000
      DIVERSION SEGMENTS =   621112512.0000        DIVERSION SEGMENTS =           0.0000
           GW IRRIGATION =           0.0000             GW IRRIGATION =           0.0000
           SW IRRIGATION =           0.0000             SW IRRIGATION =           0.0000
        SYSTEM LOSSES GW =           0.0000          SYSTEM LOSSES GW =           0.0000
        SYSTEM LOSSES SW =           0.0000          SYSTEM LOSSES SW =           0.0000

                TOTAL IN =  1949600512.0000                  TOTAL IN =           0.0000

          OUT:                                     OUT:
          ----                                     ----
               AG WELLS  =           0.0000                 AG WELLS  =           0.0000
      DIVERSION SEGMENTS =           0.0000        DIVERSION SEGMENTS =           0.0000
           GW IRRIGATION =  1328487936.0000             GW IRRIGATION =           0.0000
           SW IRRIGATION =   621124160.0000             SW IRRIGATION =           0.0000
        SYSTEM LOSSES GW =           0.0000          SYSTEM LOSSES GW =           0.0000
        SYSTEM LOSSES SW =           0.0000          SYSTEM LOSSES SW =           0.0000

               TOTAL OUT =  1949612032.0000                 TOTAL OUT =           0.0000

                IN - OUT =      -11520.0000                  IN - OUT =           0.0000

     PERCENT DISCREPANCY =          -0.00         PERCENT DISCREPANCY =           0.00



1
  VOLUMETRIC BUDGET FOR ENTIRE MODEL AT END OF TIME STEP   30, STRESS PERIOD  48
  ------------------------------------------------------------------------------

     CUMULATIVE VOLUMES      L**3       RATES FOR THIS TIME STEP      L**3/T
     ------------------                 ------------------------

           IN:                                      IN:
           ---                                      ---
             STORAGE     =  1924581120.0000               STORAGE     =           7.5574
       CONSTANT HEAD     =           0.0000         CONSTANT HEAD     =           0.0000
     HEAD DEP BOUNDS     =    35731960.0000       HEAD DEP BOUNDS     =           0.2907
      STREAM LEAKAGE     =  1487436928.0000        STREAM LEAKAGE     =          11.9704
        UZF RECHARGE     =   147876960.0000          UZF RECHARGE     =           0.1104
               GW ET     =           0.0000                 GW ET     =           0.0000
     SURFACE LEAKAGE     =           0.0000       SURFACE LEAKAGE     =           0.0000
           AG WELLS      =           0.0000             AG WELLS      =           0.0000

                TOTAL IN =  3595627008.0000                  TOTAL IN =          19.9289

          OUT:                                     OUT:
          ----                                     ----
             STORAGE     =  1022585856.0000               STORAGE     =          10.4827
       CONSTANT HEAD     =           0.0000         CONSTANT HEAD     =           0.0000
     HEAD DEP BOUNDS     =    35605040.0000       HEAD DEP BOUNDS     =           0.2866
      STREAM LEAKAGE     =  1208962176.0000        STREAM LEAKAGE     =           9.1596
        UZF RECHARGE     =           0.0000          UZF RECHARGE     =           0.0000
               GW ET     =           0.0000                 GW ET     =           0.0000
     SURFACE LEAKAGE     =           0.0000       SURFACE LEAKAGE     =           0.0000
           AG WELLS      =  1328487936.0000             AG WELLS      =           0.0000

               TOTAL OUT =  3595641088.0000                 TOTAL OUT =          19.9289

                IN - OUT =      -14080.0000                  IN - OUT =       1.1444E-05

     PERCENT DISCREPANCY =          -0.00         PERCENT DISCREPANCY =           0.00






         TIME SUMMARY AT END OF TIME STEP   30 IN STRESS PERIOD   48
                    SECONDS     MINUTES      HOURS       DAYS        YEARS
                    -----------------------------------------------------------
   TIME STEP LENGTH  87667.      1461.1      24.352      1.0147     2.77799E-03
 STRESS PERIOD TIME 2.63000E+06  43833.      730.56      30.440     8.33397E-02
         TOTAL TIME 1.23695E+08 2.06158E+06  34360.      1431.7      3.9197    
1
1
                            STRESS PERIOD NO.   49, LENGTH =   2630000.    
                            -----------------------------------------------

                              NUMBER OF TIME STEPS =    30

                               MULTIPLIER FOR DELT =     1.000

                            INITIAL TIME STEP SIZE =   87666.66    

 REUSING NON-PARAMETER GHB CELLS FROM LAST STRESS PERIOD

      2 GHB CELLS

 REUSING STREAM SEGMENT DATA FROM LAST STRESS PERIOD



            AREAL INFILTRATION RATE
 READING ON UNIT   19 WITH FORMAT: (FREE)              

            1           2           3           4           5           6           7           8           9          10
 ........................................................................................................................
   1   1.0000E-10  2.0000E-10   0.000       0.000       0.000       0.000       0.000       0.000       0.000       0.000    
   2   2.0000E-10  1.0000E-10  2.0000E-10   0.000       0.000      8.0000E-10  8.0000E-10  5.0000E-10   0.000       0.000    
   3    0.000      5.0000E-10  1.0000E-10  1.0000E-10  8.0000E-10  8.0000E-10  5.0000E-10  5.0000E-10   0.000       0.000    
   4   8.0000E-10  5.0000E-10  1.0000E-10  1.0000E-10  1.0000E-10  1.0000E-10  1.0000E-10  1.0000E-10  2.0000E-10   0.000    
   5   8.0000E-10  5.0000E-10  1.0000E-10  1.0000E-10  1.0000E-10  1.0000E-10  1.0000E-10  1.0000E-10  1.0000E-10  1.0000E-10
   6   8.0000E-10  5.0000E-10  5.0000E-10  2.0000E-10  2.0000E-10  1.0000E-10  1.0000E-10  1.0000E-10  1.0000E-10  5.0000E-10
   7   8.0000E-10  5.0000E-10  5.0000E-10  2.0000E-10  2.0000E-10  1.0000E-10  1.0000E-10  2.0000E-10  2.0000E-10   0.000    
   8    0.000      5.0000E-10  5.0000E-10  2.0000E-10  2.0000E-10  1.0000E-10  1.0000E-10  2.0000E-10  5.0000E-10   0.000    
   9    0.000      5.0000E-10  5.0000E-10  2.0000E-10  2.0000E-10  1.0000E-10  1.0000E-10  2.0000E-10  5.0000E-10   0.000    
  10    0.000      5.0000E-10  5.0000E-10  2.0000E-10  2.0000E-10  1.0000E-10  1.0000E-10  2.0000E-10  5.0000E-10  8.0000E-10
  11    0.000      1.0000E-10  1.0000E-10  1.0000E-10  1.0000E-10  1.0000E-10  1.0000E-10  2.0000E-10  5.0000E-10   0.000    
  12   1.0000E-10  1.0000E-10  1.0000E-10  1.0000E-10  1.0000E-10  1.0000E-10  1.0000E-10  1.0000E-10  2.0000E-10   0.000    
  13   1.0000E-10  1.0000E-10  2.0000E-10  2.0000E-10  2.0000E-10  2.0000E-10  2.0000E-10  1.0000E-10  1.0000E-10   0.000    
  14    0.000      2.0000E-10  5.0000E-10  5.0000E-10  5.0000E-10  5.0000E-10  5.0000E-10  2.0000E-10  1.0000E-10   0.000    
  15    0.000       0.000      8.0000E-10  8.0000E-10  8.0000E-10  8.0000E-10   0.000       0.000       0.000       0.000    

                  ET RATE =  5.000000E-10

 USING ET EXTINCTION DEPTH FROM PREVIOUS STRESS PERIOD. CURRENT PERIOD IS:      49

 USING EXTINCTION WATER CONTENT FROM PREVIOUS STRESS PERIOD. CURRENT PERIOD IS:      49

 USING AIR ENTRY PRESSURE FROM PREVIOUS STRESS PERIOD. CURRENT PERIOD IS:      49

 USING ROOT PRESSURE HEAD FROM PREVIOUS STRESS PERIOD. CURRENT PERIOD IS:      49

 USING ROOT ACTIVITY FROM PREVIOUS STRESS PERIOD. CURRENT PERIOD IS:      49

 PROCESSING AG STRESS PERIOD DATA

 READING AG STRESS PERIOD DATA

 READING IRRIGATION SEGMENT

 READING IRRIGATION WELL

 READING SUPPLEMENTAL WELL

 END PROCESSING AG STRESS PERIOD DATA OPTIONS
 
 SOLVING FOR HEAD 
                                                   Max.-Head-Change                         Max.-Flux-Residual
  Residual-Control   Outer-Iter.   Inner-Iter.     Column Row Layer    Maximum-Head-Change  Column Row Layer    Maximum-Flux-Residual          L2-NORM 
          0                 1           2             4    5     1       0.2604183269E-01       4    5    1         0.1419735524E+01      0.3155561586E+01
          0                 2           2             4    5     1      -0.2533118224E-02       4    5    1        -0.1419768406E+00      0.3108905960E+00
          0                 3           2             4    5     1       0.1724984786E-03       4    5    1         0.9938351991E-02      0.2171606361E-01
          0                 4           1             4    5     1      -0.6863782505E-05       4    5    1        -0.4064793097E-03      0.8881392520E-03

    ------------------------------------------------
       NWT REQUIRED            4 OUTER ITERATIONS 
       AND A TOTAL OF          7 INNER ITERATIONS.
    ------------------------------------------------

 NO OUTPUT CONTROL FOR STRESS PERIOD   49   TIME STEP    1
 
 SOLVING FOR HEAD 
                                                   Max.-Head-Change                         Max.-Flux-Residual
  Residual-Control   Outer-Iter.   Inner-Iter.     Column Row Layer    Maximum-Head-Change  Column Row Layer    Maximum-Flux-Residual          L2-NORM 
          0                 1           2             4    5     1       0.2483437501E-01       4    5    1         0.1353095046E+01      0.3049294513E+01
          0                 2           2             4    5     1      -0.2415667292E-02       4    5    1        -0.1353124839E+00      0.3003613372E+00
          0                 3           2             4    5     1       0.1645003413E-03       4    5    1         0.9471849748E-02      0.2097910630E-01
          0                 4           1             4    5     1      -0.6545535970E-05       4    5    1        -0.3873993244E-03      0.8580072899E-03

    ------------------------------------------------
       NWT REQUIRED            4 OUTER ITERATIONS 
       AND A TOTAL OF          7 INNER ITERATIONS.
    ------------------------------------------------

 NO OUTPUT CONTROL FOR STRESS PERIOD   49   TIME STEP    2
 
 SOLVING FOR HEAD 
                                                   Max.-Head-Change                         Max.-Flux-Residual
  Residual-Control   Outer-Iter.   Inner-Iter.     Column Row Layer    Maximum-Head-Change  Column Row Layer    Maximum-Flux-Residual          L2-NORM 
          0                 1           2             4    5     1       0.2369739355E-01       4    5    1         0.1290357410E+01      0.2949768178E+01
          0                 2           2             4    5     1      -0.2305071262E-02       4    5    1        -0.1290384424E+00      0.2904891958E+00
          0                 3           2             4    5     1       0.1569690249E-03       4    5    1         0.9032669279E-02      0.2028808916E-01
          0                 4           1             4    5     1      -0.6245863777E-05       4    5    1        -0.3694368088E-03      0.8297447115E-03

    ------------------------------------------------
       NWT REQUIRED            4 OUTER ITERATIONS 
       AND A TOTAL OF          7 INNER ITERATIONS.
    ------------------------------------------------

 NO OUTPUT CONTROL FOR STRESS PERIOD   49   TIME STEP    3
 
 SOLVING FOR HEAD 
                                                   Max.-Head-Change                         Max.-Flux-Residual
  Residual-Control   Outer-Iter.   Inner-Iter.     Column Row Layer    Maximum-Head-Change  Column Row Layer    Maximum-Flux-Residual          L2-NORM 
          0                 1           2             4    5     1       0.2262652898E-01       4    5    1         0.1231281250E+01      0.2856558292E+01
          0                 2           2             4    5     1      -0.2200906149E-02       4    5    1        -0.1231305761E+00      0.2812340576E+00
          0                 3           2             4    5     1       0.1498756544E-03       4    5    1         0.8619120828E-02      0.1964016463E-01
          0                 4           1             4    5     1      -0.5963617067E-05       4    5    1        -0.3525226421E-03      0.8032373583E-03

    ------------------------------------------------
       NWT REQUIRED            4 OUTER ITERATIONS 
       AND A TOTAL OF          7 INNER ITERATIONS.
    ------------------------------------------------

 NO OUTPUT CONTROL FOR STRESS PERIOD   49   TIME STEP    4
 
 SOLVING FOR HEAD 
                                                   Max.-Head-Change                         Max.-Flux-Residual
  Residual-Control   Outer-Iter.   Inner-Iter.     Column Row Layer    Maximum-Head-Change  Column Row Layer    Maximum-Flux-Residual          L2-NORM 
          0                 1           2             3    7     1       0.2192896846E-01       4    5    1         0.1175640537E+01      0.2769228400E+01
          0                 2           2             3    7     1      -0.2129693953E-02       4    5    1        -0.1175662793E+00      0.2726674502E+00
          0                 3           2             3    7     1       0.1451371839E-03       4    5    1         0.8229622013E-02      0.1904043404E-01
          0                 4           1             3    7     1      -0.5771403249E-05       4    5    1        -0.3365921164E-03      0.7787140169E-03

    ------------------------------------------------
       NWT REQUIRED            4 OUTER ITERATIONS 
       AND A TOTAL OF          7 INNER ITERATIONS.
    ------------------------------------------------

 NO OUTPUT CONTROL FOR STRESS PERIOD   49   TIME STEP    5
 
 SOLVING FOR HEAD 
                                                   Max.-Head-Change                         Max.-Flux-Residual
  Residual-Control   Outer-Iter.   Inner-Iter.     Column Row Layer    Maximum-Head-Change  Column Row Layer    Maximum-Flux-Residual          L2-NORM 
          0                 1           2             3    7     1       0.2160575649E-01       4    5    1         0.1123227551E+01      0.2687214014E+01
          0                 2           2             3    7     1      -0.2098399992E-02       4    5    1        -0.1123247763E+00      0.2643982549E+00
          0                 3           2             3    7     1       0.1430013141E-03       4    5    1         0.7862718602E-02      0.1846146785E-01
          0                 4           1             3    7     1      -0.5686575852E-05       4    5    1        -0.3215857221E-03      0.7550351634E-03

    ------------------------------------------------
       NWT REQUIRED            4 OUTER ITERATIONS 
       AND A TOTAL OF          7 INNER ITERATIONS.
    ------------------------------------------------

 NO OUTPUT CONTROL FOR STRESS PERIOD   49   TIME STEP    6
 
 SOLVING FOR HEAD 
                                                   Max.-Head-Change                         Max.-Flux-Residual
  Residual-Control   Outer-Iter.   Inner-Iter.     Column Row Layer    Maximum-Head-Change  Column Row Layer    Maximum-Flux-Residual          L2-NORM 
          0                 1           2             3    7     1       0.2128653948E-01       4    5    1         0.1073859678E+01      0.2609991014E+01
          0                 2           2             3    7     1      -0.2067377929E-02       4    5    1        -0.1073878050E+00      0.2554008052E+00
          0                 3           2             3    7     1       0.1408978912E-03       4    5    1         0.7517132205E-02      0.1782851939E-01
          0                 4           1             3    7     1      -0.5602341361E-05       4    5    1        -0.3074512072E-03      0.7291596285E-03

    ------------------------------------------------
       NWT REQUIRED            4 OUTER ITERATIONS 
       AND A TOTAL OF          7 INNER ITERATIONS.
    ------------------------------------------------

 NO OUTPUT CONTROL FOR STRESS PERIOD   49   TIME STEP    7
 
 SOLVING FOR HEAD 
                                                   Max.-Head-Change                         Max.-Flux-Residual
  Residual-Control   Outer-Iter.   Inner-Iter.     Column Row Layer    Maximum-Head-Change  Column Row Layer    Maximum-Flux-Residual          L2-NORM 
          0                 1           2             3    7     1       0.2097150373E-01       4    5    1         0.1027343743E+01      0.2537637587E+01
          0                 2           2             3    7     1      -0.2036794424E-02       4    5    1        -0.1027360454E+00      0.2483023206E+00
          0                 3           2             3    7     1       0.1388166157E-03       4    5    1         0.7191510460E-02      0.1732125951E-01
          0                 4           1             3    7     1      -0.5519240532E-05       4    5    1        -0.2941332746E-03      0.7084449887E-03

    ------------------------------------------------
       NWT REQUIRED            4 OUTER ITERATIONS 
       AND A TOTAL OF          7 INNER ITERATIONS.
    ------------------------------------------------

 NO OUTPUT CONTROL FOR STRESS PERIOD   49   TIME STEP    8
 
 SOLVING FOR HEAD 
                                                   Max.-Head-Change                         Max.-Flux-Residual
  Residual-Control   Outer-Iter.   Inner-Iter.     Column Row Layer    Maximum-Head-Change  Column Row Layer    Maximum-Flux-Residual          L2-NORM 
          0                 1           2             3    7     1       0.2066103528E-01       4    5    1         0.9835140201E+00      0.2469696702E+01
          0                 2           2             3    7     1      -0.2006644617E-02       4    5    1        -0.9835292324E-01      0.2414676173E+00
          0                 3           2             3    7     1       0.1367619180E-03       4    5    1         0.6884693184E-02      0.1684206616E-01
          0                 4           1             3    7     1      -0.5437534705E-05       4    5    1        -0.2815844259E-03      0.6888034129E-03

    ------------------------------------------------
       NWT REQUIRED            4 OUTER ITERATIONS 
       AND A TOTAL OF          7 INNER ITERATIONS.
    ------------------------------------------------

 NO OUTPUT CONTROL FOR STRESS PERIOD   49   TIME STEP    9
 
 SOLVING FOR HEAD 
                                                   Max.-Head-Change                         Max.-Flux-Residual
  Residual-Control   Outer-Iter.   Inner-Iter.     Column Row Layer    Maximum-Head-Change  Column Row Layer    Maximum-Flux-Residual          L2-NORM 
          0                 1           2             3    7     1       0.2035503233E-01       4    5    1         0.9422013443E+00      0.2405907663E+01
          0                 2           2             3    7     1      -0.1976908740E-02       4    5    1        -0.9422152026E-01      0.2350462872E+00
          0                 3           2             3    7     1       0.1347360700E-03       4    5    1         0.6595496141E-02      0.1639180101E-01
          0                 4           1             3    7     1      -0.5356954940E-05       4    5    1        -0.2697562186E-03      0.6704469463E-03

    ------------------------------------------------
       NWT REQUIRED            4 OUTER ITERATIONS 
       AND A TOTAL OF          7 INNER ITERATIONS.
    ------------------------------------------------

 NO OUTPUT CONTROL FOR STRESS PERIOD   49   TIME STEP   10
 
 SOLVING FOR HEAD 
                                                   Max.-Head-Change                         Max.-Flux-Residual
  Residual-Control   Outer-Iter.   Inner-Iter.     Column Row Layer    Maximum-Head-Change  Column Row Layer    Maximum-Flux-Residual          L2-NORM 
          0                 1           2             3    7     1       0.2005363089E-01       4    5    1         0.9032548456E+00      0.2345982754E+01
          0                 2           2             3    7     1      -0.1947602222E-02       4    5    1        -0.9032674802E-01      0.2290099869E+00
          0                 3           2             3    7     1       0.1327400541E-03       4    5    1         0.6322863127E-02      0.1596850747E-01
          0                 4           1             3    7     1      -0.5277542684E-05       4    5    1        -0.2586055227E-03      0.6530798648E-03

    ------------------------------------------------
       NWT REQUIRED            4 OUTER ITERATIONS 
       AND A TOTAL OF          7 INNER ITERATIONS.
    ------------------------------------------------

 NO OUTPUT CONTROL FOR STRESS PERIOD   49   TIME STEP   11
 
 SOLVING FOR HEAD 
                                                   Max.-Head-Change                         Max.-Flux-Residual
  Residual-Control   Outer-Iter.   Inner-Iter.     Column Row Layer    Maximum-Head-Change  Column Row Layer    Maximum-Flux-Residual          L2-NORM 
          0                 1           2             3    7     1       0.1975717786E-01       4    5    1         0.8665337410E+00      0.2289664860E+01
          0                 2           2             3    7     1      -0.1918761133E-02       4    5    1        -0.8665452691E-01      0.2233335459E+00
          0                 3           2             3    7     1       0.1307762493E-03       4    5    1         0.6065808583E-02      0.1557037462E-01
          0                 4           1             3    7     1      -0.5199395911E-05       4    5    1        -0.2480919800E-03      0.6367787661E-03

    ------------------------------------------------
       NWT REQUIRED            4 OUTER ITERATIONS 
       AND A TOTAL OF          7 INNER ITERATIONS.
    ------------------------------------------------

 NO OUTPUT CONTROL FOR STRESS PERIOD   49   TIME STEP   12
 
 SOLVING FOR HEAD 
                                                   Max.-Head-Change                         Max.-Flux-Residual
  Residual-Control   Outer-Iter.   Inner-Iter.     Column Row Layer    Maximum-Head-Change  Column Row Layer    Maximum-Flux-Residual          L2-NORM 
          0                 1           2             3    7     1       0.1946550779E-01       4    5    1         0.8318916798E+00      0.2236705803E+01
          0                 2           2             3    7     1      -0.1890370988E-02       4    5    1        -0.8319022063E-01      0.2179924298E+00
          0                 3           2             3    7     1       0.1288436172E-03       4    5    1         0.5823307999E-02      0.1519575700E-01
          0                 4           1             3    7     1      -0.5122473175E-05       4    5    1        -0.2381736838E-03      0.6214638153E-03

    ------------------------------------------------
       NWT REQUIRED            4 OUTER ITERATIONS 
       AND A TOTAL OF          7 INNER ITERATIONS.
    ------------------------------------------------

 NO OUTPUT CONTROL FOR STRESS PERIOD   49   TIME STEP   13
 
 SOLVING FOR HEAD 
                                                   Max.-Head-Change                         Max.-Flux-Residual
  Residual-Control   Outer-Iter.   Inner-Iter.     Column Row Layer    Maximum-Head-Change  Column Row Layer    Maximum-Flux-Residual          L2-NORM 
          0                 1           2             3    7     1       0.1917892159E-01       4    5    1         0.7992138847E+00      0.2186885432E+01
          0                 2           2             3    7     1      -0.1862463000E-02       4    5    1        -0.7992235043E-01      0.2129647355E+00
          0                 3           2             3    7     1       0.1269442211E-03       4    5    1         0.5594557830E-02      0.1484314280E-01
          0                 4           1             3    7     1      -0.5046860591E-05       4    5    1        -0.2288177745E-03      0.6070559611E-03

    ------------------------------------------------
       NWT REQUIRED            4 OUTER ITERATIONS 
       AND A TOTAL OF          7 INNER ITERATIONS.
    ------------------------------------------------

 NO OUTPUT CONTROL FOR STRESS PERIOD   49   TIME STEP   14
 
 SOLVING FOR HEAD 
                                                   Max.-Head-Change                         Max.-Flux-Residual
  Residual-Control   Outer-Iter.   Inner-Iter.     Column Row Layer    Maximum-Head-Change  Column Row Layer    Maximum-Flux-Residual          L2-NORM 
          0                 1           2             3    7     1       0.1889745342E-01       4    5    1         0.7683782134E+00      0.2139985048E+01
          0                 2           2             3    7     1      -0.1835042089E-02       4    5    1        -0.7683870108E-01      0.2082288363E+00
          0                 3           2             3    7     1       0.1250783441E-03       4    5    1         0.5378703056E-02      0.1451082805E-01
          0                 4           1             3    7     1      -0.4972570016E-05       4    5    1        -0.2199893040E-03      0.5934594746E-03

    ------------------------------------------------
       NWT REQUIRED            4 OUTER ITERATIONS 
       AND A TOTAL OF          7 INNER ITERATIONS.
    ------------------------------------------------

 NO OUTPUT CONTROL FOR STRESS PERIOD   49   TIME STEP   15
 
 SOLVING FOR HEAD 
                                                   Max.-Head-Change                         Max.-Flux-Residual
  Residual-Control   Outer-Iter.   Inner-Iter.     Column Row Layer    Maximum-Head-Change  Column Row Layer    Maximum-Flux-Residual          L2-NORM 
          0                 1           2             3    7     1       0.1862087895E-01       4    5    1         0.7392781297E+00      0.2095816017E+01
          0                 2           2             3    7     1      -0.1808087715E-02       4    5    1        -0.7392861819E-01      0.2037660369E+00
          0                 3           2             3    7     1       0.1232445454E-03       4    5    1         0.5174997887E-02      0.1419769498E-01
          0                 4           1             3    7     1      -0.4899545731E-05       4    5    1        -0.2116577521E-03      0.5806576504E-03

    ------------------------------------------------
       NWT REQUIRED            4 OUTER ITERATIONS 
       AND A TOTAL OF          7 INNER ITERATIONS.
    ------------------------------------------------

 NO OUTPUT CONTROL FOR STRESS PERIOD   49   TIME STEP   16
 
 SOLVING FOR HEAD 
                                                   Max.-Head-Change                         Max.-Flux-Residual
  Residual-Control   Outer-Iter.   Inner-Iter.     Column Row Layer    Maximum-Head-Change  Column Row Layer    Maximum-Flux-Residual          L2-NORM 
          0                 1           2             3    7     1       0.1834944730E-01       4    5    1         0.7118064772E+00      0.2054184097E+01
          0                 2           2             3    7     1      -0.1781501383E-02       4    5    1        -0.7118138530E-01      0.1961228826E+00
          0                 3           2             3    7     1       0.1214490984E-03       4    5    1         0.4982692128E-02      0.1366102509E-01
          0                 4           1             3    7     1      -0.4827510621E-05       4    5    1        -0.2037924316E-03      0.5586856882E-03

    ------------------------------------------------
       NWT REQUIRED            4 OUTER ITERATIONS 
       AND A TOTAL OF          7 INNER ITERATIONS.
    ------------------------------------------------

 NO OUTPUT CONTROL FOR STRESS PERIOD   49   TIME STEP   17
 
 SOLVING FOR HEAD 
                                                   Max.-Head-Change                         Max.-Flux-Residual
  Residual-Control   Outer-Iter.   Inner-Iter.     Column Row Layer    Maximum-Head-Change  Column Row Layer    Maximum-Flux-Residual          L2-NORM 
          0                 1           2             3    7     1       0.1808364398E-01       4    5    1         0.6858705332E+00      0.2015014446E+01
          0                 2           2             3    7     1      -0.1755527563E-02       4    5    1        -0.6858772946E-01      0.1926394193E+00
          0                 3           2             3    7     1       0.1196921963E-03       4    5    1         0.4801136728E-02      0.1338651873E-01
          0                 4           1             3    7     1      -0.4756688612E-05       4    5    1        -0.1963667912E-03      0.5474756336E-03

    ------------------------------------------------
       NWT REQUIRED            4 OUTER ITERATIONS 
       AND A TOTAL OF          7 INNER ITERATIONS.
    ------------------------------------------------

 NO OUTPUT CONTROL FOR STRESS PERIOD   49   TIME STEP   18
 
 SOLVING FOR HEAD 
                                                   Max.-Head-Change                         Max.-Flux-Residual
  Residual-Control   Outer-Iter.   Inner-Iter.     Column Row Layer    Maximum-Head-Change  Column Row Layer    Maximum-Flux-Residual          L2-NORM 
          0                 1           2             3    7     1       0.1782290517E-01       4    5    1         0.6613762615E+00      0.1977946531E+01
          0                 2           2             3    7     1      -0.1730078073E-02       4    5    1        -0.6613824647E-01      0.1888155890E+00
          0                 3           2             3    7     1       0.1179620158E-03       4    5    1         0.4629673376E-02      0.1311748352E-01
          0                 4           1             3    7     1      -0.4687750550E-05       4    5    1        -0.1893539418E-03      0.5364867476E-03

    ------------------------------------------------
       NWT REQUIRED            4 OUTER ITERATIONS 
       AND A TOTAL OF          7 INNER ITERATIONS.
    ------------------------------------------------

 NO OUTPUT CONTROL FOR STRESS PERIOD   49   TIME STEP   19
 
 SOLVING FOR HEAD 
                                                   Max.-Head-Change                         Max.-Flux-Residual
  Residual-Control   Outer-Iter.   Inner-Iter.     Column Row Layer    Maximum-Head-Change  Column Row Layer    Maximum-Flux-Residual          L2-NORM 
          0                 1           2             3    7     1       0.1756761789E-01       4    5    1         0.6382355776E+00      0.1942938753E+01
          0                 2           2             3    7     1      -0.1705155632E-02       4    5    1        -0.6382412731E-01      0.1852018810E+00
          0                 3           2             3    7     1       0.1162678263E-03       4    5    1         0.4467685441E-02      0.1286321775E-01
          0                 4           1             3    7     1      -0.4620240761E-05       4    5    1        -0.1827286144E-03      0.5260781619E-03

    ------------------------------------------------
       NWT REQUIRED            4 OUTER ITERATIONS 
       AND A TOTAL OF          7 INNER ITERATIONS.
    ------------------------------------------------

 NO OUTPUT CONTROL FOR STRESS PERIOD   49   TIME STEP   20
 
 SOLVING FOR HEAD 
                                                   Max.-Head-Change                         Max.-Flux-Residual
  Residual-Control   Outer-Iter.   Inner-Iter.     Column Row Layer    Maximum-Head-Change  Column Row Layer    Maximum-Flux-Residual          L2-NORM 
          0                 1           2             3    7     1       0.1731723089E-01       4    5    1         0.6163659060E+00      0.1909840971E+01
          0                 2           2             3    7     1      -0.1680706842E-02       4    5    1        -0.6163711394E-01      0.1817831876E+00
          0                 3           2             3    7     1       0.1146059861E-03       4    5    1         0.4314594874E-02      0.1262263797E-01
          0                 4           1             3    7     1      -0.4554015912E-05       4    5    1        -0.1764671983E-03      0.5162421295E-03

    ------------------------------------------------
       NWT REQUIRED            4 OUTER ITERATIONS 
       AND A TOTAL OF          7 INNER ITERATIONS.
    ------------------------------------------------

 NO OUTPUT CONTROL FOR STRESS PERIOD   49   TIME STEP   21
 
 SOLVING FOR HEAD 
                                                   Max.-Head-Change                         Max.-Flux-Residual
  Residual-Control   Outer-Iter.   Inner-Iter.     Column Row Layer    Maximum-Head-Change  Column Row Layer    Maximum-Flux-Residual          L2-NORM 
          0                 1           2             3    7     1       0.1707216265E-01       4    5    1         0.5957045895E+00      0.1878531407E+01
          0                 2           2             3    7     1      -0.1656773589E-02       4    5    1        -0.5957094022E-01      0.1785475260E+00
          0                 3           2             3    7     1       0.1129793076E-03       4    5    1         0.4169963035E-02      0.1239492340E-01
          0                 4           1             3    7     1      -0.4489188251E-05       4    5    1        -0.1705517370E-03      0.5069394252E-03

    ------------------------------------------------
       NWT REQUIRED            4 OUTER ITERATIONS 
       AND A TOTAL OF          7 INNER ITERATIONS.
    ------------------------------------------------

 NO OUTPUT CONTROL FOR STRESS PERIOD   49   TIME STEP   22
 
 SOLVING FOR HEAD 
                                                   Max.-Head-Change                         Max.-Flux-Residual
  Residual-Control   Outer-Iter.   Inner-Iter.     Column Row Layer    Maximum-Head-Change  Column Row Layer    Maximum-Flux-Residual          L2-NORM 
          0                 1           2             3    7     1       0.1683232991E-01       4    5    1         0.5761711293E+00      0.1848892358E+01
          0                 2           2             3    7     1      -0.1633348184E-02       4    5    1        -0.5761755586E-01      0.1754828400E+00
          0                 3           2             3    7     1       0.1113872553E-03       4    5    1         0.4033226446E-02      0.1217919520E-01
          0                 4           1             3    7     1      -0.4425737170E-05       4    5    1        -0.1649592052E-03      0.4981009818E-03

    ------------------------------------------------
       NWT REQUIRED            4 OUTER ITERATIONS 
       AND A TOTAL OF          7 INNER ITERATIONS.
    ------------------------------------------------

 NO OUTPUT CONTROL FOR STRESS PERIOD   49   TIME STEP   23
 
 SOLVING FOR HEAD 
                                                   Max.-Head-Change                         Max.-Flux-Residual
  Residual-Control   Outer-Iter.   Inner-Iter.     Column Row Layer    Maximum-Head-Change  Column Row Layer    Maximum-Flux-Residual          L2-NORM 
          0                 1           2             3    7     1       0.1659740708E-01       6    7    1         0.5586296158E+00      0.1820815052E+01
          0                 2           2             3    7     1      -0.1610399298E-02       6    7    1        -0.5586321856E-01      0.1725776140E+00
          0                 3           2             3    7     1       0.1098276853E-03       6    7    1         0.3914921416E-02      0.1197466792E-01
          0                 4           1             3    7     1      -0.4363577707E-05       6    7    1        -0.1597964053E-03      0.4897439145E-03

    ------------------------------------------------
       NWT REQUIRED            4 OUTER ITERATIONS 
       AND A TOTAL OF          7 INNER ITERATIONS.
    ------------------------------------------------

 NO OUTPUT CONTROL FOR STRESS PERIOD   49   TIME STEP   24
 
 SOLVING FOR HEAD 
                                                   Max.-Head-Change                         Max.-Flux-Residual
  Residual-Control   Outer-Iter.   Inner-Iter.     Column Row Layer    Maximum-Head-Change  Column Row Layer    Maximum-Flux-Residual          L2-NORM 
          0                 1           2             3    7     1       0.1636730978E-01       6    7    1         0.5475708091E+00      0.1794192865E+01
          0                 2           2             3    7     1      -0.1587919213E-02       6    7    1        -0.5475732497E-01      0.1698215631E+00
          0                 3           2             3    7     1       0.1083000547E-03       6    7    1         0.3837510907E-02      0.1178064241E-01
          0                 4           1             3    7     1      -0.4302688216E-05       6    7    1        -0.1566301255E-03      0.4818038636E-03

    ------------------------------------------------
       NWT REQUIRED            4 OUTER ITERATIONS 
       AND A TOTAL OF          7 INNER ITERATIONS.
    ------------------------------------------------

 NO OUTPUT CONTROL FOR STRESS PERIOD   49   TIME STEP   25
 
 SOLVING FOR HEAD 
                                                   Max.-Head-Change                         Max.-Flux-Residual
  Residual-Control   Outer-Iter.   Inner-Iter.     Column Row Layer    Maximum-Head-Change  Column Row Layer    Maximum-Flux-Residual          L2-NORM 
          0                 1           2             3    7     1       0.1614219300E-01       6    7    1         0.5369082932E+00      0.1768931021E+01
          0                 2           2             3    7     1      -0.1565923748E-02       6    7    1        -0.5369106125E-01      0.1672047656E+00
          0                 3           2             3    7     1       0.1068054184E-03       6    7    1         0.3762874419E-02      0.1159639076E-01
          0                 4           1             3    7     1      -0.4243112100E-05       6    7    1        -0.1535773345E-03      0.4742722329E-03

    ------------------------------------------------
       NWT REQUIRED            4 OUTER ITERATIONS 
       AND A TOTAL OF          7 INNER ITERATIONS.
    ------------------------------------------------

 NO OUTPUT CONTROL FOR STRESS PERIOD   49   TIME STEP   26
 
 SOLVING FOR HEAD 
                                                   Max.-Head-Change                         Max.-Flux-Residual
  Residual-Control   Outer-Iter.   Inner-Iter.     Column Row Layer    Maximum-Head-Change  Column Row Layer    Maximum-Flux-Residual          L2-NORM 
          0                 1           2             3    7     1       0.1592170837E-01       4    5    1         0.5080909785E+00      0.1627918587E+01
          0                 2           2             3    7     1      -0.1544381260E-02       4    5    1        -0.5080941913E-01      0.1521381642E+00
          0                 3           2             3    7     1       0.1053413995E-03       4    5    1         0.3556657826E-02      0.1053090031E-01
          0                 4           1             3    7     1      -0.4184767504E-05       4    5    1        -0.1454675348E-03      0.4302850827E-03

    ------------------------------------------------
       NWT REQUIRED            4 OUTER ITERATIONS 
       AND A TOTAL OF          7 INNER ITERATIONS.
    ------------------------------------------------

 NO OUTPUT CONTROL FOR STRESS PERIOD   49   TIME STEP   27
 
 SOLVING FOR HEAD 
                                                   Max.-Head-Change                         Max.-Flux-Residual
  Residual-Control   Outer-Iter.   Inner-Iter.     Column Row Layer    Maximum-Head-Change  Column Row Layer    Maximum-Flux-Residual          L2-NORM 
          0                 1           2             3    7     1       0.1570600239E-01       6    7    1         0.5208443393E+00      0.1725294081E+01
          0                 2           2             3    7     1      -0.1523303175E-02       6    7    1        -0.5208464726E-01      0.1627896357E+00
          0                 3           1             3    7     1       0.1039092784E-03       6    7    1         0.3650388073E-02      0.1128640081E-01
          0                 4           1             3    7     1      -0.4127786135E-05       6    7    1        -0.1489719928E-03      0.4615880950E-03

    ------------------------------------------------
       NWT REQUIRED            4 OUTER ITERATIONS 
       AND A TOTAL OF          6 INNER ITERATIONS.
    ------------------------------------------------

 NO OUTPUT CONTROL FOR STRESS PERIOD   49   TIME STEP   28
 
 SOLVING FOR HEAD 
                                                   Max.-Head-Change                         Max.-Flux-Residual
  Residual-Control   Outer-Iter.   Inner-Iter.     Column Row Layer    Maximum-Head-Change  Column Row Layer    Maximum-Flux-Residual          L2-NORM 
          0                 1           2             3    7     1       0.1549497781E-01       6    7    1         0.5111210702E+00      0.1703459863E+01
          0                 2           2             3    7     1      -0.1502681160E-02       6    7    1        -0.5111231003E-01      0.1605197224E+00
          0                 3           1             3    7     1       0.1025080815E-03       6    7    1         0.3582328054E-02      0.1112647694E-01
          0                 4           1             3    7     1      -0.4071931289E-05       6    7    1        -0.1461882584E-03      0.4550958854E-03

    ------------------------------------------------
       NWT REQUIRED            4 OUTER ITERATIONS 
       AND A TOTAL OF          6 INNER ITERATIONS.
    ------------------------------------------------

 NO OUTPUT CONTROL FOR STRESS PERIOD   49   TIME STEP   29
 
 SOLVING FOR HEAD 
                                                   Max.-Head-Change                         Max.-Flux-Residual
  Residual-Control   Outer-Iter.   Inner-Iter.     Column Row Layer    Maximum-Head-Change  Column Row Layer    Maximum-Flux-Residual          L2-NORM 
          0                 1           2             3    7     1       0.1528853308E-01       6    7    1         0.5017455018E+00      0.1682666951E+01
          0                 2           2             3    7     1      -0.1482505763E-02       6    7    1        -0.5017474347E-01      0.1583571852E+00
          0                 3           1             3    7     1       0.1011372586E-03       6    7    1         0.3516701753E-02      0.1097413789E-01
          0                 4           1             3    7     1      -0.4017286549E-05       6    7    1        -0.1435040638E-03      0.4488227199E-03

    ------------------------------------------------
       NWT REQUIRED            4 OUTER ITERATIONS 
       AND A TOTAL OF          6 INNER ITERATIONS.
    ------------------------------------------------

 NO OUTPUT CONTROL FOR STRESS PERIOD   49   TIME STEP   30



 STREAM LISTING     PERIOD     49   STEP       30

 LAYER ROW COL. STREAM  RCH.  FLOW INTO     FLOW TO   FLOW OUT OF   OVRLND.     DIRECT     STREAM       STREAM     STREAM     STREAM   STREAMBED  STREAMBED
                SEG.NO.  NO.  STRM. RCH.    AQUIFER    STRM. RCH.    RUNOFF     PRECIP       ET          HEAD       DEPTH      WIDTH   CONDCTNC.   GRADIENT

   1    1    1     1     1    7.1250E+00  1.2038E-01   7.0046E+00  0.000E+00  0.000E+00  0.000E+00  1.09385E+03  8.024E-01  7.035E+00  3.166E-02  1.267E+00
   1    2    2     1     2    7.0046E+00  1.8492E-01   6.8197E+00  0.000E+00  0.000E+00  0.000E+00  1.08886E+03  7.976E-01  6.956E+00  4.869E-02  1.266E+00
   1    3    3     1     3    6.8197E+00  1.5635E-01   6.6634E+00  0.000E+00  0.000E+00  0.000E+00  1.08321E+03  7.929E-01  6.870E+00  4.122E-02  1.264E+00
   1    3    4     1     4    6.6634E+00  1.4286E-01   6.5205E+00  0.000E+00  0.000E+00  0.000E+00  1.07820E+03  7.886E-01  6.794E+00  3.771E-02  1.263E+00
   1    4    5     2     1    4.5205E+00  2.6715E-01   4.2533E+00  0.000E+00  0.000E+00  0.000E+00  1.07236E+03  4.251E-01  1.200E+01  7.800E-02  1.142E+00
   1    5    6     2     2    4.2533E+00  2.0467E-01   4.0487E+00  0.000E+00  0.000E+00  0.000E+00  1.06692E+03  4.112E-01  1.200E+01  6.000E-02  1.137E+00
   1    6    6     2     3    4.0487E+00  2.0394E-01   3.8447E+00  0.000E+00  0.000E+00  0.000E+00  1.06219E+03  3.989E-01  1.200E+01  6.000E-02  1.133E+00
   1    7    6     2     4    3.8447E+00  2.0319E-01   3.6416E+00  0.000E+00  0.000E+00  0.000E+00  1.05746E+03  3.864E-01  1.200E+01  6.000E-02  1.129E+00
   1    8    6     2     5    3.6416E+00  2.0242E-01   3.4391E+00  0.000E+00  0.000E+00  0.000E+00  1.05273E+03  3.737E-01  1.200E+01  6.000E-02  1.125E+00
   1    3    5     3     1    2.0000E+00  2.8252E-01   1.7175E+00  0.000E+00  0.000E+00  0.000E+00  1.07555E+03  1.909E+00  9.636E+00  7.227E-02  1.955E+00
   1    3    6     3     2    1.7175E+00  2.4905E-01   1.4684E+00  0.000E+00  0.000E+00  0.000E+00  1.07264E+03  1.727E+00  8.909E+00  6.682E-02  1.864E+00
   1    3    7     3     3    1.4684E+00  1.9718E-01   1.2712E+00  0.000E+00  0.000E+00  0.000E+00  1.06987E+03  1.555E+00  8.218E+00  5.547E-02  1.777E+00
   1    4    8     3     4    1.2712E+00  2.2567E-01   1.0456E+00  0.000E+00  0.000E+00  0.000E+00  1.06682E+03  1.364E+00  7.455E+00  6.709E-02  1.682E+00
   1    5    8     3     5    1.0456E+00  1.5790E-01   8.8768E-01  0.000E+00  0.000E+00  0.000E+00  1.06362E+03  1.164E+00  6.655E+00  4.991E-02  1.582E+00
   1    6    8     3     6    8.8768E-01  5.5980E-02   8.3170E-01  0.000E+00  0.000E+00  0.000E+00  1.06158E+03  1.036E+00  6.145E+00  1.844E-02  1.518E+00
   1    5   10     4     1    1.0000E+01  9.0919E-02   9.9091E+00  0.000E+00  0.000E+00  0.000E+00  1.07836E+03  6.368E-01  1.000E+01  2.500E-02  1.212E+00
   1    5    9     4     2    9.9091E+00  1.8158E-01   9.7275E+00  0.000E+00  0.000E+00  0.000E+00  1.07154E+03  6.315E-01  1.000E+01  5.000E-02  1.211E+00
   1    6    8     4     3    9.7275E+00  1.2689E-01   9.6006E+00  0.000E+00  0.000E+00  0.000E+00  1.06381E+03  6.256E-01  1.000E+01  3.500E-02  1.209E+00
   1    6    8     5     1    1.0432E+01  2.2686E-01   1.0205E+01  0.000E+00  0.000E+00  0.000E+00  1.05868E+03  6.790E-01  1.542E+01  6.166E-02  1.226E+00
   1    7    7     5     2    1.0205E+01  2.7894E-01   9.9265E+00  0.000E+00  0.000E+00  0.000E+00  1.05417E+03  6.732E-01  1.519E+01  7.594E-02  1.224E+00
   1    8    7     5     3    9.9265E+00  1.9221E-01   9.7343E+00  0.000E+00  0.000E+00  0.000E+00  1.04992E+03  6.676E-01  1.497E+01  5.241E-02  1.223E+00
   1    8    6     5     4    9.7343E+00  1.3577E-01   9.5985E+00  0.000E+00  0.000E+00  0.000E+00  1.04691E+03  6.637E-01  1.482E+01  3.706E-02  1.221E+00
   1    9    6     6     1    1.3038E+01  2.2931E-01   1.2808E+01  0.000E+00  0.000E+00  0.000E+00  1.04355E+03  8.218E-01  1.200E+01  6.000E-02  1.274E+00
   1   10    7     6     2    1.2808E+01  2.2878E-01   1.2580E+01  0.000E+00  0.000E+00  0.000E+00  1.03899E+03  8.131E-01  1.200E+01  6.000E-02  1.271E+00
   1   11    7     6     3    1.2580E+01  2.2826E-01   1.2351E+01  0.000E+00  0.000E+00  0.000E+00  1.03444E+03  8.043E-01  1.200E+01  6.000E-02  1.268E+00
   1   12    7     6     4    1.2351E+01  2.2772E-01   1.2124E+01  0.000E+00  0.000E+00  0.000E+00  1.02989E+03  7.954E-01  1.200E+01  6.000E-02  1.265E+00
   1   13    7     6     5    1.2124E+01  6.9353E-03   1.2117E+01  0.000E+00  0.000E+00  0.000E+00  1.02670E+03  7.908E-01  1.200E+01  2.400E-02  9.632E-02
   1   14    9     7     1    1.5000E+02  1.4094E+00   1.4859E+02  0.000E+00  0.000E+00  0.000E+00  1.03987E+03  2.288E+00  5.529E+01  5.593E-01  8.400E-01
   1   13    8     7     2    1.4859E+02  2.0541E+00   1.4654E+02  0.000E+00  0.000E+00  0.000E+00  1.03478E+03  2.278E+00  5.525E+01  6.147E-01  1.114E+00
   1   13    7     7     3    1.4654E+02  1.8293E+00   1.4471E+02  0.000E+00  0.000E+00  0.000E+00  1.02969E+03  2.268E+00  5.521E+01  5.583E-01  1.092E+00
   1   13    6     8     1    1.5682E+02  1.1953E+00   1.5563E+02  0.000E+00  0.000E+00  0.000E+00  1.02474E+03  2.860E+00  4.147E+01  4.226E-01  9.428E-01
   1   13    5     8     2    1.5563E+02  4.3990E-01   1.5519E+02  0.000E+00  0.000E+00  0.000E+00  1.01848E+03  2.855E+00  4.139E+01  4.218E-01  3.477E-01
   1   13    4     8     3    1.5519E+02 -1.5145E+00   1.5670E+02  0.000E+00  0.000E+00  0.000E+00  1.01223E+03  2.858E+00  4.144E+01  4.223E+00 -1.195E-01
   1   13    3     8     4    1.5670E+02 -3.1935E+00   1.5990E+02  0.000E+00  0.000E+00  0.000E+00  1.00600E+03  2.874E+00  4.168E+01  4.247E+00 -2.506E-01
   1   13    2     8     5    1.5990E+02 -2.4661E+00   1.6236E+02  0.000E+00  0.000E+00  0.000E+00  9.99768E+02  2.893E+00  4.196E+01  4.275E+00 -1.923E-01
   1   13    1     8     6    1.6236E+02 -1.9531E+00   1.6432E+02  0.000E+00  0.000E+00  0.000E+00  9.94783E+02  2.908E+00  4.217E+01  2.578E+00 -2.525E-01
   1    8    6     9     1    0.0000E+00  0.0000E+00   0.0000E+00  0.000E+00  0.000E+00  0.000E+00  1.07875E+03  0.000E+00  4.000E+00  0.000E+00  1.000E+00
   1    8    5     9     2    0.0000E+00  0.0000E+00   0.0000E+00  0.000E+00  0.000E+00  0.000E+00  1.07825E+03  0.000E+00  4.000E+00  0.000E+00  1.000E+00





UNSATURATED ZONE PACKAGE VOLUMETRIC BUDGET FOR  TIME STEP    30 STRESS PERIOD   49
  ------------------------------------------------------------------------------



     CUMULATIVE VOLUMES      L**3       RATES FOR THIS TIME STEP      L**3/T
     ------------------                 ------------------------

           IN:                                      IN:
           ---                                      ---
        INFILTRATION =  2056662327.9516          INFILTRATION =           0.8475

          OUT:                                     OUT:
          ----                                     ----
              UZF ET =  1707221855.8129                UZF ET =           0.7500
        UZF RECHARGE =   148259007.2030          UZF RECHARGE =           0.1783

            IN - OUT =   201181464.9358              IN - OUT =      -8.0821E-02

          STORAGE:                                 STORAGE:
          --------                                 --------
      STORAGE CHANGE =   201183106.3392        STORAGE CHANGE =      -8.0821E-02

 PERCENT DISCREPANCY IS DIFFERENCE BETWEEN IN-OUT MINUS CHANGE IN STORAGE
 DIVIDED BY THE AVERAGE OF IN AND OUT TIMES 100

 PERCENT DISCREPANCY =          -0.00     PERCENT DISCREPANCY =           0.00






1
  VOLUMETRIC BUDGET FOR AGRICULTURAL FIELDS AT  END OF TIME STEP   30, STRESS PERIOD  49
  ------------------------------------------------------------------------------

     CUMULATIVE VOLUMES      L**3       RATES FOR THIS TIME STEP      L**3/T
     ------------------                 ------------------------

           IN:                                      IN:
           ---                                      ---
               AG WELLS  =  1328487936.0000                 AG WELLS  =           0.0000
      DIVERSION SEGMENTS =   621112512.0000        DIVERSION SEGMENTS =           0.0000
           GW IRRIGATION =           0.0000             GW IRRIGATION =           0.0000
           SW IRRIGATION =           0.0000             SW IRRIGATION =           0.0000
        SYSTEM LOSSES GW =           0.0000          SYSTEM LOSSES GW =           0.0000
        SYSTEM LOSSES SW =           0.0000          SYSTEM LOSSES SW =           0.0000

                TOTAL IN =  1949600512.0000                  TOTAL IN =           0.0000

          OUT:                                     OUT:
          ----                                     ----
               AG WELLS  =           0.0000                 AG WELLS  =           0.0000
      DIVERSION SEGMENTS =           0.0000        DIVERSION SEGMENTS =           0.0000
           GW IRRIGATION =  1328487936.0000             GW IRRIGATION =           0.0000
           SW IRRIGATION =   621124160.0000             SW IRRIGATION =           0.0000
        SYSTEM LOSSES GW =           0.0000          SYSTEM LOSSES GW =           0.0000
        SYSTEM LOSSES SW =           0.0000          SYSTEM LOSSES SW =           0.0000

               TOTAL OUT =  1949612032.0000                 TOTAL OUT =           0.0000

                IN - OUT =      -11520.0000                  IN - OUT =           0.0000

     PERCENT DISCREPANCY =          -0.00         PERCENT DISCREPANCY =           0.00



1
  VOLUMETRIC BUDGET FOR ENTIRE MODEL AT END OF TIME STEP   30, STRESS PERIOD  49
  ------------------------------------------------------------------------------

     CUMULATIVE VOLUMES      L**3       RATES FOR THIS TIME STEP      L**3/T
     ------------------                 ------------------------

           IN:                                      IN:
           ---                                      ---
             STORAGE     =  1939450368.0000               STORAGE     =           4.4037
       CONSTANT HEAD     =           0.0000         CONSTANT HEAD     =           0.0000
     HEAD DEP BOUNDS     =    36496584.0000       HEAD DEP BOUNDS     =           0.2908
      STREAM LEAKAGE     =  1518748288.0000        STREAM LEAKAGE     =          11.9363
        UZF RECHARGE     =   148259024.0000          UZF RECHARGE     =           0.1783
               GW ET     =           0.0000                 GW ET     =           0.0000
     SURFACE LEAKAGE     =           0.0000       SURFACE LEAKAGE     =           0.0000
           AG WELLS      =           0.0000             AG WELLS      =           0.0000

                TOTAL IN =  3642954496.0000                  TOTAL IN =          16.8092

          OUT:                                     OUT:
          ----                                     ----
             STORAGE     =  1045074816.0000               STORAGE     =           7.3954
       CONSTANT HEAD     =           0.0000         CONSTANT HEAD     =           0.0000
     HEAD DEP BOUNDS     =    36358800.0000       HEAD DEP BOUNDS     =           0.2866
      STREAM LEAKAGE     =  1233046656.0000        STREAM LEAKAGE     =           9.1272
        UZF RECHARGE     =           0.0000          UZF RECHARGE     =           0.0000
               GW ET     =           0.0000                 GW ET     =           0.0000
     SURFACE LEAKAGE     =           0.0000       SURFACE LEAKAGE     =           0.0000
           AG WELLS      =  1328487936.0000             AG WELLS      =           0.0000

               TOTAL OUT =  3642968064.0000                 TOTAL OUT =          16.8092

                IN - OUT =      -13568.0000                  IN - OUT =       1.3351E-05

     PERCENT DISCREPANCY =          -0.00         PERCENT DISCREPANCY =           0.00






         TIME SUMMARY AT END OF TIME STEP   30 IN STRESS PERIOD   49
                    SECONDS     MINUTES      HOURS       DAYS        YEARS
                    -----------------------------------------------------------
   TIME STEP LENGTH  87667.      1461.1      24.352      1.0147     2.77799E-03
 STRESS PERIOD TIME 2.63000E+06  43833.      730.56      30.440     8.33397E-02
         TOTAL TIME 1.26325E+08 2.10542E+06  35090.      1462.1      4.0030    
1


 Run end date and time (yyyy/mm/dd hh:mm:ss): 2021/01/21 17:58:12
 Elapsed run time: 3.872 Seconds

