                                  MODFLOW-NWT-SWR1 
      U.S. GEOLOGICAL SURVEY MODULAR FINITE-DIFFERENCE GROUNDWATER-FLOW MODEL
                            VERSION 1.2.0 03/01/2020
                    BASED ON MODFLOW-2005 VERSION 1.12.00 02/03/2017

 LIST FILE: ./output/Agwater1_low.lst
                         UNIT    9

 OPENING ./input/Agwater1.ba6
 FILE TYPE:BAS6   UNIT   75   STATUS:OLD    
 FORMAT:FORMATTED              ACCESS:SEQUENTIAL          

 OPENING ./input/Agwater1.upw
 FILE TYPE:UPW   UNIT    7   STATUS:OLD    
 FORMAT:FORMATTED              ACCESS:SEQUENTIAL          

 OPENING ./input/Agwater1.dis
 FILE TYPE:DIS   UNIT    8   STATUS:OLD    
 FORMAT:FORMATTED              ACCESS:SEQUENTIAL          

 OPENING ./input/Agwater1.nwt
 FILE TYPE:NWT   UNIT   13   STATUS:OLD    
 FORMAT:FORMATTED              ACCESS:SEQUENTIAL          

 OPENING ./input/Agwater1.oc
 FILE TYPE:OC   UNIT   14   STATUS:OLD    
 FORMAT:FORMATTED              ACCESS:SEQUENTIAL          

 OPENING ./input/Agwater1.sfr
 FILE TYPE:SFR   UNIT   15   STATUS:OLD    
 FORMAT:FORMATTED              ACCESS:SEQUENTIAL          

 OPENING ./input/Agwater1.ghb
 FILE TYPE:GHB   UNIT   17   STATUS:OLD    
 FORMAT:FORMATTED              ACCESS:SEQUENTIAL          

 OPENING ./input/Agwater1.uzf
 FILE TYPE:UZF   UNIT   19   STATUS:OLD    
 FORMAT:FORMATTED              ACCESS:SEQUENTIAL          

 OPENING ./input/Agwater1.gag
 FILE TYPE:GAGE   UNIT   32   STATUS:OLD    
 FORMAT:FORMATTED              ACCESS:SEQUENTIAL          

 OPENING ./input/seg1_low.tab
 FILE TYPE:DATA   UNIT   55   STATUS:UNKNOWN
 FORMAT:FORMATTED              ACCESS:SEQUENTIAL          

 OPENING ./input/seg9.tab
 FILE TYPE:DATA   UNIT   56   STATUS:UNKNOWN
 FORMAT:FORMATTED              ACCESS:SEQUENTIAL          

 OPENING ./input/Agwater1.ag
 FILE TYPE:AG   UNIT   57   STATUS:OLD    
 FORMAT:FORMATTED              ACCESS:SEQUENTIAL          

 OPENING ./output/Agwater1_low.hed
 FILE TYPE:DATA   UNIT   62   STATUS:UNKNOWN
 FORMAT:FORMATTED              ACCESS:SEQUENTIAL          

 OPENING ./output/Agwater1gw_low.ts5
 FILE TYPE:DATA   UNIT  105   STATUS:UNKNOWN
 FORMAT:FORMATTED              ACCESS:SEQUENTIAL          

 OPENING ./output/Agwater1SW_low.ts9
 FILE TYPE:DATA   UNIT  107   STATUS:UNKNOWN
 FORMAT:FORMATTED              ACCESS:SEQUENTIAL          

 OPENING ./output/Agwater1SW_ET_low.ts9
 FILE TYPE:DATA   UNIT  108   STATUS:UNKNOWN
 FORMAT:FORMATTED              ACCESS:SEQUENTIAL          

 OPENING ./output/Agwater1_low.uzfot
 FILE TYPE:DATA(BINARY)   UNIT   61   STATUS:UNKNOWN
 FORMAT:BINARY                 ACCESS:SEQUENTIAL          

 OPENING ./output/Agwater1cbc_low.unf
 FILE TYPE:DATA(BINARY)   UNIT  102   STATUS:UNKNOWN
 FORMAT:BINARY                 ACCESS:SEQUENTIAL          

 OPENING ./output/Agwater1_low.uzf1
 FILE TYPE:DATA   UNIT   65   STATUS:UNKNOWN
 FORMAT:FORMATTED              ACCESS:SEQUENTIAL          

 OPENING ./output/Agwater1_low.uzf2
 FILE TYPE:DATA   UNIT   66   STATUS:UNKNOWN
 FORMAT:FORMATTED              ACCESS:SEQUENTIAL          

 OPENING ./output/Agwater1_low.uzf3
 FILE TYPE:DATA   UNIT   67   STATUS:UNKNOWN
 FORMAT:FORMATTED              ACCESS:SEQUENTIAL          

 OPENING ./output/Agwater1_low.uzf4
 FILE TYPE:DATA   UNIT   68   STATUS:UNKNOWN
 FORMAT:FORMATTED              ACCESS:SEQUENTIAL          

 OPENING ./output/Agwater1_low.flw
 FILE TYPE:DATA   UNIT   81   STATUS:UNKNOWN
 FORMAT:FORMATTED              ACCESS:SEQUENTIAL          

 OPENING ./output/Agwater1_low.sg1
 FILE TYPE:DATA   UNIT   83   STATUS:UNKNOWN
 FORMAT:FORMATTED              ACCESS:SEQUENTIAL          

 OPENING ./output/Agwater1_low.sg2
 FILE TYPE:DATA   UNIT   84   STATUS:UNKNOWN
 FORMAT:FORMATTED              ACCESS:SEQUENTIAL          

 OPENING ./output/Agwater1_low.sg3
 FILE TYPE:DATA   UNIT   85   STATUS:UNKNOWN
 FORMAT:FORMATTED              ACCESS:SEQUENTIAL          

 OPENING ./output/Agwater1_low.sg4
 FILE TYPE:DATA   UNIT   86   STATUS:UNKNOWN
 FORMAT:FORMATTED              ACCESS:SEQUENTIAL          

 OPENING ./output/Agwater1_low.sg5
 FILE TYPE:DATA   UNIT   87   STATUS:UNKNOWN
 FORMAT:FORMATTED              ACCESS:SEQUENTIAL          

 OPENING ./output/Agwater1_low.sg6
 FILE TYPE:DATA   UNIT   88   STATUS:UNKNOWN
 FORMAT:FORMATTED              ACCESS:SEQUENTIAL          

 OPENING ./output/Agwater1_low.sg7
 FILE TYPE:DATA   UNIT   89   STATUS:UNKNOWN
 FORMAT:FORMATTED              ACCESS:SEQUENTIAL          

 OPENING ./output/Agwater1_low.sg8
 FILE TYPE:DATA   UNIT   90   STATUS:UNKNOWN
 FORMAT:FORMATTED              ACCESS:SEQUENTIAL          

 OPENING ./output/Agwater1_low.sg9
 FILE TYPE:DATA   UNIT   91   STATUS:UNKNOWN
 FORMAT:FORMATTED              ACCESS:SEQUENTIAL          

 BAS -- BASIC PACKAGE, VERSION 1.1.4, 4/01/2018 INPUT READ FROM UNIT   75
 
 MODFLOW was compiled using mixed precision
 Precision of REAL variables:           6
 Precision of DOUBLE PRECISION variables:          15

 DISCRETIZATION INPUT DATA READ FROM UNIT    8
 #Test problem 2-- Discretization input
 #Example problem using the UZF1 Package
    1 LAYERS        15 ROWS        10 COLUMNS
   49 STRESS PERIOD(S) IN SIMULATION
 MODEL TIME UNIT IS SECONDS
 MODEL LENGTH UNIT IS FEET
  Confining bed flag for each layer:
   0

                     DELR =   5000.00    

                     DELC =   5000.00    



           TOP ELEVATION OF LAYER 1
 READING ON UNIT    8 WITH FORMAT: (10F7.0)            

            1           2           3           4           5           6           7           8           9          10
 ........................................................................................................................
   1    1105.       1105.       0.000       0.000       0.000       0.000       0.000       0.000       0.000       0.000    
   2    1105.       1095.       1105.       0.000       0.000       1100.       1100.       1110.       0.000       0.000    
   3    0.000       1100.       1085.       1080.       1078.       1076.       1073.       1090.       0.000       0.000    
   4    1110.       1100.       1090.       1085.       1076.       1080.       1080.       1070.       1100.       0.000    
   5    1110.       1100.       1085.       1080.       1078.       1074.       1077.       1066.       1075.       1080.    
   6    1105.       1095.       1080.       1077.       1073.       1069.       1070.       1063.       1085.       1095.    
   7    1105.       1090.       1075.       1072.       1070.       1065.       1065.       1069.       1090.       0.000    
   8    0.000       1080.       1070.       1068.       1063.       1060.       1063.       1067.       1090.       0.000    
   9    0.000       1075.       1065.       1062.       1058.       1052.       1055.       1065.       1090.       0.000    
  10    0.000       1070.       1060.       1055.       1046.       1046.       1044.       1060.       1088.       1100.    
  11    0.000       1055.       1050.       1045.       1041.       1042.       1040.       1050.       1075.       0.000    
  12    1027.       1028.       1028.       1032.       1032.       1033.       1032.       1040.       1060.       0.000    
  13    997.0       1004.       1008.       1014.       1020.       1027.       1032.       1038.       1050.       0.000    
  14    0.000       1030.       1040.       1045.       1050.       1050.       1050.       1050.       1044.       0.000    
  15    0.000       0.000       1080.       1080.       1080.       1080.       0.000       0.000       0.000       0.000    



             MODEL LAYER BOTTOM EL. FOR LAYER   1
 READING ON UNIT    8 WITH FORMAT: (10F7.0)            

            1           2           3           4           5           6           7           8           9          10
 ........................................................................................................................
   1    1000.       1000.       0.000       0.000       0.000       0.000       0.000       0.000       0.000       0.000    
   2    1000.       900.0       900.0       0.000       0.000       950.0       950.0       950.0       0.000       0.000    
   3    0.000       850.0       670.0       680.0       680.0       770.0       770.0       890.0       0.000       0.000    
   4    925.0       850.0       650.0       650.0       650.0       680.0       740.0       850.0       950.0       0.000    
   5    925.0       800.0       650.0       600.0       600.0       600.0       650.0       720.0       850.0       950.0    
   6    925.0       800.0       650.0       600.0       550.0       600.0       650.0       720.0       850.0       970.0    
   7    925.0       800.0       650.0       600.0       550.0       600.0       650.0       720.0       950.0       0.000    
   8    0.000       850.0       700.0       650.0       570.0       600.0       700.0       850.0       950.0       0.000    
   9    0.000       850.0       700.0       650.0       540.0       580.0       700.0       850.0       950.0       0.000    
  10    0.000       850.0       700.0       630.0       530.0       580.0       650.0       800.0       900.0       950.0    
  11    0.000       850.0       700.0       620.0       580.0       620.0       700.0       800.0       900.0       0.000    
  12    900.0       830.0       710.0       640.0       600.0       650.0       700.0       800.0       900.0       0.000    
  13    900.0       810.0       750.0       700.0       650.0       700.0       750.0       800.0       900.0       0.000    
  14    0.000       950.0       850.0       850.0       850.0       850.0       850.0       850.0       850.0       0.000    
  15    0.000       0.000       950.0       950.0       950.0       950.0       0.000       0.000       0.000       0.000    


 STRESS PERIOD     LENGTH       TIME STEPS     MULTIPLIER FOR DELT    SS FLAG
 ----------------------------------------------------------------------------
        1         86400.00          1                    1.000         SS
        2         2630000.         30                    1.000         TR
        3         2630000.         30                    1.000         TR
        4         2630000.         30                    1.000         TR
        5         2630000.         30                    1.000         TR
        6         2630000.         30                    1.000         TR
        7         2630000.         30                    1.000         TR
        8         2630000.         30                    1.000         TR
        9         2630000.         30                    1.000         TR
       10         2630000.         30                    1.000         TR
       11         2630000.         30                    1.000         TR
       12         2630000.         30                    1.000         TR
       13         2630000.         30                    1.000         TR
       14         2630000.         30                    1.000         TR
       15         2630000.         30                    1.000         TR
       16         2630000.         30                    1.000         TR
       17         2630000.         30                    1.000         TR
       18         2630000.         30                    1.000         TR
       19         2630000.         30                    1.000         TR
       20         2630000.         30                    1.000         TR
       21         2630000.         30                    1.000         TR
       22         2630000.         30                    1.000         TR
       23         2630000.         30                    1.000         TR
       24         2630000.         30                    1.000         TR
       25         2630000.         30                    1.000         TR
       26         2630000.         30                    1.000         TR
       27         2630000.         30                    1.000         TR
       28         2630000.         30                    1.000         TR
       29         2630000.         30                    1.000         TR
       30         2630000.         30                    1.000         TR
       31         2630000.         30                    1.000         TR
       32         2630000.         30                    1.000         TR
       33         2630000.         30                    1.000         TR
       34         2630000.         30                    1.000         TR
       35         2630000.         30                    1.000         TR
       36         2630000.         30                    1.000         TR
       37         2630000.         30                    1.000         TR
       38         2630000.         30                    1.000         TR
       39         2630000.         30                    1.000         TR
       40         2630000.         30                    1.000         TR
       41         2630000.         30                    1.000         TR
       42         2630000.         30                    1.000         TR
       43         2630000.         30                    1.000         TR
       44         2630000.         30                    1.000         TR
       45         2630000.         30                    1.000         TR
       46         2630000.         30                    1.000         TR
       47         2630000.         30                    1.000         TR
       48         2630000.         30                    1.000         TR
       49         2630000.         30                    1.000         TR

 COMBINED STEADY-STATE AND TRANSIENT SIMULATION



 
 #Test Simulation 2-- Example problem using the UZF1 Package                     
 #Modified from example Problem 1 of SFR1 documentation report                   
 THE FREE FORMAT OPTION HAS BEEN SELECTED



                     BOUNDARY ARRAY FOR LAYER   1
 READING ON UNIT   75 WITH FORMAT: (20I4)              

                1           2           3           4           5           6           7           8           9          10
 ............................................................................................................................
   1            1           1           0           0           0           0           0           0           0           0
   2            1           1           1           0           0           1           1           1           0           0
   3            0           1           1           1           1           1           1           1           0           0
   4            1           1           1           1           1           1           1           1           1           0
   5            1           1           1           1           1           1           1           1           1           1
   6            1           1           1           1           1           1           1           1           1           1
   7            1           1           1           1           1           1           1           1           1           0
   8            0           1           1           1           1           1           1           1           1           0
   9            0           1           1           1           1           1           1           1           1           0
  10            0           1           1           1           1           1           1           1           1           1
  11            0           1           1           1           1           1           1           1           1           0
  12            1           1           1           1           1           1           1           1           1           0
  13            1           1           1           1           1           1           1           1           1           0
  14            0           1           1           1           1           1           1           1           1           0
  15            0           0           1           1           1           1           0           0           0           0

 AQUIFER HEAD WILL BE SET TO   6999.0     AT ALL NO-FLOW NODES (IBOUND=0).



                       INITIAL HEAD FOR LAYER   1
 READING ON UNIT   75 WITH FORMAT: (10F8.0)            

            1           2           3           4           5           6           7           8           9          10
 ........................................................................................................................
   1    1093.       1089.       6999.       6999.       6999.       6999.       6999.       6999.       6999.       6999.    
   2    1090.       1087.       1081.       6999.       6999.       1072.       1071.       1071.       6999.       6999.    
   3    6999.       1079.       1078.       1074.       1072.       1071.       1069.       1068.       6999.       6999.    
   4    1069.       1071.       1070.       1067.       1065.       1064.       1064.       1066.       1066.       6999.    
   5    1065.       1064.       1063.       1062.       1061.       1061.       1060.       1062.       1066.       1068.    
   6    1060.       1058.       1057.       1056.       1056.       1057.       1057.       1059.       1062.       1066.    
   7    1056.       1053.       1052.       1051.       1051.       1052.       1053.       1055.       1056.       6999.    
   8    6999.       1046.       1046.       1046.       1046.       1046.       1048.       1050.       1050.       6999.    
   9    6999.       1039.       1039.       1039.       1040.       1041.       1042.       1043.       1044.       6999.    
  10    6999.       1031.       1032.       1033.       1034.       1035.       1037.       1038.       1039.       1042.    
  11    6999.       1021.       1023.       1027.       1029.       1030.       1032.       1034.       1036.       6999.    
  12    1001.       1009.       1015.       1020.       1023.       1026.       1029.       1030.       1034.       6999.    
  13    994.5      1000.0       1007.       1013.       1019.       1024.       1029.       1034.       1036.       6999.    
  14    6999.       1004.       1009.       1014.       1019.       1024.       1029.       1035.       1039.       6999.    
  15    6999.       6999.       1012.       1015.       1019.       1022.       6999.       6999.       6999.       6999.    

 OUTPUT CONTROL IS SPECIFIED ONLY AT TIME STEPS FOR WHICH OUTPUT IS DESIRED
 HEADS WILL BE SAVED WITH FORMAT: (10F10.3)           
 SAVED HEADS WILL BE LABELED
 COMPACT CELL-BY-CELL BUDGET FILES WILL BE WRITTEN
 HEAD PRINT FORMAT CODE IS   4    DRAWDOWN PRINT FORMAT CODE IS   0
 HEADS WILL BE SAVED ON UNIT   62    DRAWDOWNS WILL BE SAVED ON UNIT    0
 # NWT Input File
 # Test Problem 3 for MODFLOW-NWT
 #HEADTOL  FLUXTOL MAXITEROUT THICKFACT LINMETH IPRNWT IBOTAV OPTIONS DBDREDUCE DBDINCREASE DBDGAMMA MOMFACT BACKFLAG MAXBACKITER BACKTOL BACKREDUCE

 NWT1 -- Newton Solver, VERSION 1.1.4, 4/01/2018
         INPUT READ FROM UNIT 13

 SPECIFIED OPTION:
 SOLVER INPUT VALUES ARE SPECIFIED BY USER
 ***XMD linear solver will be used***
 
   CONVERGENCE CRITERION OF   0.100000E-03 FOR HEAD SOLUTION
   AND A TOLERANCE OF   0.100000E+01 FOR FLOW SOLUTION AND 
   A MAXIMUM OF   500 OUTER ITERATIONS. 


   D-B-D REDUCTION FACTOR OF    0.970000E+00 AND 
   A D-B-D INCREASE FACTOR OF    0.100000E-04 AND 
   A D-B-D RELAXATION OF    0.000000E+00 AND 
   A MOMENTUM FACTOR OF    0.100000E+00 .


 ***BACKTRACKING IS INACTIVE***
 XMD -- LINEAR SOLUTION BY XMD PACKAGE VERSION 1.30
     BY MOTOMU IBARAKI, OHIO STATE UNIVERSITY, COLOMBUS, OH
                 INPUT READ FROM UNIT 13
 ACCELERATION METHOD                    (IACL) =         1
 NODE ORDERING FLAG                   (NORDER) =         0
 LEVEL OF FILL                         (LEVEL) =         7
 MAXIMUM NUMBER OF ORTHOGONALIZATIONS  (NORTH) =         7
 INDEX FOR USING REDUCED SYSTEM      (IREDSYS) =         1
 RESID. REDUCTION CONVERGE CRITERION  (RRCTOL) =  0.000000E+00
 INDEX FOR USING DROP TOLERANCE     (IDROPTOL) =         1
 DROP TOLERANCE VALUE                  (EPSRN) =  0.500000E-02
 CONVERGENCE CRITERIA OF           (HCLOSEXMD) =  0.100000E-03
 MAX. NUMBER OF LINEAR ITERATIONS  (MXITERXMD) =        50


 UPW1 -- UPSTREAM WEIGHTING FLOW PACKAGE, VERSION 1.1.4, 4/01/2018
         INPUT READ FROM UNIT  7

 #Layer-Property Flow Package input for test simulation 2
 CELL-BY-CELL FLOWS WILL BE SAVED ON UNIT  102
 No named parameters

   LAYER FLAGS:
 LAYER       LAYTYP          LAYAVG    CHANI           LAYVKA           LAYWET
 ---------------------------------------------------------------------------
    1             1             0     1.000E+00             0             0

   INTERPRETATION OF LAYER FLAGS:
                        INTERBLOCK     HORIZONTAL    DATA IN
         LAYER TYPE   TRANSMISSIVITY   ANISOTROPY   ARRAY VKA   WETTABILITY
 LAYER   (LAYTYP)        (LAYAVG)      (CHANI)     (LAYVKA)       (LAYWET)
 ---------------------------------------------------------------------------
    1   CONVERTIBLE      HARMONIC     1.000E+00    VERTICAL K  NON-WETTABLE



              HYD. COND. ALONG ROWS FOR LAYER   1
 READING ON UNIT    7 WITH FORMAT: (10F5.0)            

            1           2           3           4           5           6           7           8           9          10
 ........................................................................................................................
   1   2.0000E-03  2.0000E-03   0.000       0.000       0.000       0.000       0.000       0.000       0.000       0.000    
   2   4.0000E-04  2.0000E-03  2.0000E-03   0.000       0.000      4.0000E-04  4.0000E-04  4.0000E-04   0.000       0.000    
   3    0.000      4.0000E-04  2.0000E-03  2.0000E-03  4.0000E-04  4.0000E-04  4.0000E-04  4.0000E-04   0.000       0.000    
   4   4.0000E-04  4.0000E-04  4.0000E-04  2.0000E-03  2.0000E-03  2.0000E-03  4.0000E-04  4.0000E-04  4.0000E-04   0.000    
   5   4.0000E-04  4.0000E-04  4.0000E-04  2.0000E-03  2.0000E-03  2.0000E-03  2.0000E-03  2.0000E-03  2.0000E-03  2.0000E-03
   6   4.0000E-04  4.0000E-04  4.0000E-04  2.0000E-03  2.0000E-03  2.0000E-03  2.0000E-03  2.0000E-03  4.0000E-04  4.0000E-04
   7   4.0000E-04  4.0000E-04  4.0000E-04  2.0000E-03  2.0000E-03  2.0000E-03  2.0000E-03  2.0000E-03  4.0000E-04   0.000    
   8    0.000      4.0000E-04  4.0000E-04  2.0000E-03  2.0000E-03  2.0000E-03  2.0000E-03  4.0000E-04  4.0000E-04   0.000    
   9    0.000      4.0000E-04  4.0000E-04  2.0000E-03  2.0000E-03  2.0000E-03  2.0000E-03  4.0000E-04  4.0000E-04   0.000    
  10    0.000      4.0000E-04  4.0000E-04  2.0000E-03  2.0000E-03  2.0000E-03  2.0000E-03  4.0000E-04  4.0000E-04  4.0000E-04
  11    0.000      4.0000E-04  4.0000E-04  2.0000E-03  2.0000E-03  2.0000E-03  2.0000E-03  4.0000E-04  4.0000E-04   0.000    
  12   4.0000E-04  4.0000E-04  2.0000E-03  2.0000E-03  2.0000E-03  2.0000E-03  2.0000E-03  4.0000E-04  4.0000E-04   0.000    
  13   2.0000E-03  2.0000E-03  2.0000E-03  2.0000E-03  2.0000E-03  2.0000E-03  2.0000E-03  2.0000E-03  2.0000E-03   0.000    
  14    0.000      4.0000E-04  4.0000E-04  4.0000E-04  4.0000E-04  4.0000E-04  4.0000E-04  4.0000E-04  2.0000E-03   0.000    
  15    0.000       0.000      4.0000E-04  4.0000E-04  4.0000E-04  4.0000E-04   0.000       0.000       0.000       0.000    

      VERTICAL HYD. COND. =  1.000000E-06 FOR LAYER   1

         SPECIFIC STORAGE =  1.000000E-06 FOR LAYER   1



                     SPECIFIC YIELD FOR LAYER   1
 READING ON UNIT    7 WITH FORMAT: (10F5.0)            

            1           2           3           4           5           6           7           8           9          10
 ........................................................................................................................
   1   0.2000      0.2000       0.000       0.000       0.000       0.000       0.000       0.000       0.000       0.000    
   2   0.1000      0.2000      0.2000       0.000       0.000      0.1000      0.1000      0.1000       0.000       0.000    
   3    0.000      0.1000      0.2000      0.2000      0.1000      0.1000      0.1000      0.1000       0.000       0.000    
   4   0.1000      0.1000      0.1000      0.2000      0.2000      0.2000      0.1000      0.1000      0.1000       0.000    
   5   0.1000      0.1000      0.1000      0.2000      0.2000      0.2000      0.2000      0.2000      0.2000      0.2000    
   6   0.1000      0.1000      0.1000      0.2000      0.2000      0.2000      0.2000      0.2000      0.1000      0.1000    
   7   0.1000      0.1000      0.1000      0.2000      0.2000      0.2000      0.2000      0.2000      0.1000       0.000    
   8    0.000      0.1000      0.1000      0.2000      0.2000      0.2000      0.2000      0.1000      0.1000       0.000    
   9    0.000      0.1000      0.1000      0.2000      0.2000      0.2000      0.2000      0.1000      0.1000       0.000    
  10    0.000      0.1000      0.1000      0.2000      0.2000      0.2000      0.2000      0.1000      0.1000      0.1000    
  11    0.000      0.1000      0.1000      0.2000      0.2000      0.2000      0.2000      0.1000      0.1000       0.000    
  12   0.1000      0.1000      0.2000      0.2000      0.2000      0.2000      0.2000      0.1000      0.1000       0.000    
  13   0.2000      0.2000      0.2000      0.2000      0.2000      0.2000      0.2000      0.2000      0.2000       0.000    
  14    0.000      0.1000      0.1000      0.1000      0.1000      0.1000      0.1000      0.1000      0.2000       0.000    
  15    0.000       0.000      0.1000      0.1000      0.1000      0.1000       0.000       0.000       0.000       0.000    

 GHB -- GENERAL-HEAD BOUNDARY PACKAGE, VERSION 7, 5/2/2005
         INPUT READ FROM UNIT   17
 No named parameters
 MAXIMUM OF      2 ACTIVE GHB CELLS AT ONE TIME
 CELL-BY-CELL FLOWS WILL BE PRINTED WHEN ICBCFL NOT 0


     0 GHB parameters

 SFR7 -- STREAMFLOW ROUTING PACKAGE, VERSION 1.0.5, 2012-04-05
         INPUT READ FROM UNIT  15
 #SFR2 Package input for Testing supplimental pumping and irrigation
 No named parameters

 PROCESSING SFR2 OPTIONS
 
          2 Specified inflow files will be read with a maximum of       1446 row entries per file
 
Stream loss will be calculated as a factor of the streambed hydraulic conductivity. Multiplication factor is equal to     0.1000000015E+00

 END PROCESSING SFR2 OPTIONS
 


 NUMBER OF STREAM REACHES IS   38

 NUMBER OF STREAM SEGMENTS IS    9

 NUMBER OF STREAM PARAMETERS IS    0

 NUMBER OF STREAM SEGMENTS DEFINED USING PARAMETERS IS              0

 MAXIMUM ERROR FOR STREAM LEAKAGE RATES IS  1.00E-06

 CONSTANT FOR MANNINGS EQUATION IS  1.4860E+00



 STREAM OUTPUT WILL BE WRITTEN TO FILE ON UNIT   81


   STREAM NETWORK DESCRIPTION: 

   LAYER    ROW    COL   SEGMENT   REACH     LENGTH
                          NUMBER   NUMBER    IN CELL        
   --------------------------------------------------
      1      1      1       1        1    4.5000E+03
      1      2      2       1        2    7.0000E+03
      1      3      3       1        3    6.0000E+03
      1      3      4       1        4    5.5500E+03
      1      4      5       2        1    6.5000E+03
      1      5      6       2        2    5.0000E+03
      1      6      6       2        3    5.0000E+03
      1      7      6       2        4    5.0000E+03
      1      8      6       2        5    5.0000E+03
      1      3      5       3        1    5.0000E+03
      1      3      6       3        2    5.0000E+03
      1      3      7       3        3    4.5000E+03
      1      4      8       3        4    6.0000E+03
      1      5      8       3        5    5.0000E+03
      1      6      8       3        6    2.0000E+03
      1      5     10       4        1    2.5000E+03
      1      5      9       4        2    5.0000E+03
      1      6      8       4        3    3.5000E+03
      1      6      8       5        1    4.0000E+03
      1      7      7       5        2    5.0000E+03
      1      8      7       5        3    3.5000E+03
      1      8      6       5        4    2.5000E+03
      1      9      6       6        1    5.0000E+03
      1     10      7       6        2    5.0000E+03
      1     11      7       6        3    5.0000E+03
      1     12      7       6        4    5.0000E+03
      1     13      7       6        5    2.0000E+03
      1     14      9       7        1    5.0000E+03
      1     13      8       7        2    5.5000E+03
      1     13      7       7        3    5.0000E+03
      1     13      6       8        1    5.0000E+03
      1     13      5       8        2    5.0000E+03
      1     13      4       8        3    5.0000E+03
      1     13      3       8        4    5.0000E+03
      1     13      2       8        5    5.0000E+03
      1     13      1       8        6    3.0000E+03
      1      8      6       9        1    3.0000E+03
      1      8      5       9        2    3.0000E+03




 UZF1 -- UNSATURATED FLOW PACKAGE, VERSION 1.5, 09/10/2019
         INPUT READ FROM UNIT 19
 #UZF Package input for test simulation 2
 No named parameters

 PROCESSING UZF OPTIONS
 
 
 INITIAL WATER CONTENT (THTI) WILL BE 
READ FOR THE FIRST SS OR TR STRESS PERIOD
 
 
 RESIDUAL WATER CONTENT (THTR) WILL BE 
READ AND USED FOR THE FIRST TRANSIENT STRESS 
PERIOD
 
 
AIR ENTRY PRESSURE AND ROOT PRESSURE WILL BE 
SPECIFIED BY USER AND UZ ET WILL BE SIMULATED 
AS PRESSURE-HEAD DEPENDENT
 
 
INFILTRATION WILL BE REJECTED USING 
LAND SURFACE K
 
 
HYDRAULIC CONDUCTIVITY OF LAND SURFACE 
WILL BE READ
 

 END PROCESSING UZF OPTIONS



            AREAL EXTENT OF UZ FLOW
 READING ON UNIT   19 WITH FORMAT: (20I4)              

                1           2           3           4           5           6           7           8           9          10
 ............................................................................................................................
   1            1           1           0           0           0           0           0           0           0           0
   2            1           1           1           0           0           1           1           1           0           0
   3            0           1           1           1           1           1           1           1           0           0
   4            1           1           1           1           1           1           1           1           1           0
   5            1           1           1           1           1           1           1           1           1           1
   6            1           1           1           1           1           1           1           1           1           1
   7            1           1           1           1           1           1           1           1           1           0
   8            0           1           1           1           1           1           1           1           1           0
   9            0           1           1           1           1           1           1           1           1           0
  10            0           1           1           1           1           1           1           1           1           1
  11            0           1           1           1           1           1           1           1           1           0
  12            1           1           1           1           1           1           1           1           1           0
  13            1           1           1           1           1           1           1           1           1           0
  14            0           1           1           1           1           1           1           1           1           0
  15            0           0           1           1           1           1           0           0           0           0
 OPTION 1 -- RECHARGE IN UZF TO TOP LAYER ONLY 



            ROUTING OVERLAND RUNOFF
 READING ON UNIT   19 WITH FORMAT: (20I4)              

                1           2           3           4           5           6           7           8           9          10
 ............................................................................................................................
   1            1           1           0           0           0           0           0           0           0           0
   2            1           1           1           0           0           3           3           3           0           0
   3            0           1           1           1           3           3           3           3           0           0
   4            8           8           2           2           2           2           2           3           3           0
   5            8           8           8           8           2           2           2           3           4           4
   6            8           8           8           8           8           2           2           4           4           4
   7            8           8           8           8           8           2           5           5           5           0
   8            0           8           8           8           8           2           5           5           5           0
   9            0           8           8           8           8           6           6           6           6           0
  10            0           8           8           8           8           6           6           6           6           6
  11            0           8           8           8           8           8           6           6           7           0
  12            8           8           8           8           8           8           6           7           7           0
  13            8           8           8           8           8           8           7           7           7           0
  14            0           8           8           8           8           8           7           7           7           0
  15            0           0           8           8           8           8           0           0           0           0



               SATURATED VERTICAL K
 READING ON UNIT   19 WITH FORMAT: (10F4.0)            

            1           2           3           4           5           6           7           8           9          10
 ........................................................................................................................
   1   4.6000E-05  4.6000E-05   0.000       0.000       0.000       0.000       0.000       0.000       0.000       0.000    
   2   4.6000E-05  4.6000E-05  4.6000E-05   0.000       0.000      4.6000E-05  4.6000E-05  4.6000E-05   0.000       0.000    
   3    0.000      4.6000E-05  4.6000E-05  4.6000E-05  4.6000E-05  4.6000E-05  4.6000E-05  4.6000E-05   0.000       0.000    
   4   4.6000E-05  4.6000E-05  4.6000E-05  4.6000E-05  4.6000E-05  4.6000E-05  4.6000E-05  4.6000E-05  4.6000E-05   0.000    
   5   4.6000E-05  4.6000E-05  4.6000E-05  4.6000E-05  4.6000E-05  4.6000E-05  4.6000E-05  4.6000E-05  4.6000E-05  4.6000E-05
   6   4.6000E-05  4.6000E-05  4.6000E-05  4.6000E-05  4.6000E-05  4.6000E-05  4.6000E-05  4.6000E-05  4.6000E-05  4.6000E-05
   7   4.6000E-05  4.6000E-05  4.6000E-05  4.6000E-05  4.6000E-05  4.6000E-05  4.6000E-05  4.6000E-05  4.6000E-05   0.000    
   8    0.000      4.6000E-05  4.6000E-05  4.6000E-05  4.6000E-05  4.6000E-05  4.6000E-05  4.6000E-05  4.6000E-05   0.000    
   9    0.000      4.6000E-05  4.6000E-05  4.6000E-05  4.6000E-05  4.6000E-05  4.6000E-05  4.6000E-05  4.6000E-05   0.000    
  10    0.000      4.6000E-05  4.6000E-05  4.6000E-05  4.6000E-05  4.6000E-05  4.6000E-05  4.6000E-05  4.6000E-05  4.6000E-05
  11    0.000      4.6000E-05  4.6000E-05  4.6000E-05  4.6000E-05  4.6000E-05  4.6000E-05  4.6000E-05  4.6000E-05   0.000    
  12   4.6000E-05  4.6000E-05  4.6000E-05  4.6000E-05  4.6000E-05  4.6000E-05  4.6000E-05  4.6000E-05  4.6000E-05   0.000    
  13   4.6000E-05  4.6000E-05  4.6000E-05  4.6000E-05  4.6000E-05  4.6000E-05  4.6000E-05  4.6000E-05  4.6000E-05   0.000    
  14    0.000      4.6000E-05  4.6000E-05  4.6000E-05  4.6000E-05  4.6000E-05  4.6000E-05  4.6000E-05  4.6000E-05   0.000    
  15    0.000       0.000      4.6000E-05  4.6000E-05  4.6000E-05  4.6000E-05   0.000       0.000       0.000       0.000    



            LAND SURFACE VERTICAL K
 READING ON UNIT   19 WITH FORMAT: (10F4.0)            

            1           2           3           4           5           6           7           8           9          10
 ........................................................................................................................
   1   1.0000E-05  1.0000E-05   0.000       0.000       0.000       0.000       0.000       0.000       0.000       0.000    
   2   1.0000E-05  1.0000E-05  1.0000E-05   0.000       0.000      1.0000E-05  1.0000E-05  1.0000E-05   0.000       0.000    
   3    0.000      1.0000E-05  1.0000E-05  1.0000E-05  1.0000E-05  1.0000E-05  1.0000E-05  1.0000E-05   0.000       0.000    
   4   1.0000E-05  1.0000E-05  1.0000E-05  1.0000E-05  1.0000E-05  1.0000E-05  1.0000E-05  1.0000E-05  1.0000E-05   0.000    
   5   1.0000E-05  1.0000E-05  1.0000E-05  1.0000E-05  1.0000E-05  1.0000E-05  1.0000E-05  1.0000E-05  1.0000E-05  1.0000E-05
   6   1.0000E-05  1.0000E-05  1.0000E-05  1.0000E-05  1.0000E-05  1.0000E-05  1.0000E-05  1.0000E-05  1.0000E-05  1.0000E-05
   7   1.0000E-05  1.0000E-05  1.0000E-05  1.0000E-05  1.0000E-05  1.0000E-05  1.0000E-05  1.0000E-05  1.0000E-05   0.000    
   8    0.000      1.0000E-05  1.0000E-05  1.0000E-05  1.0000E-05  1.0000E-05  1.0000E-05  1.0000E-05  1.0000E-05   0.000    
   9    0.000      1.0000E-05  1.0000E-05  1.0000E-05  1.0000E-05  1.0000E-05  1.0000E-05  1.0000E-05  1.0000E-05   0.000    
  10    0.000      1.0000E-05  1.0000E-05  1.0000E-05  1.0000E-05  1.0000E-05  1.0000E-05  1.0000E-05  1.0000E-05  1.0000E-05
  11    0.000      1.0000E-05  1.0000E-05  1.0000E-05  1.0000E-05  1.0000E-05  1.0000E-05  1.0000E-05  1.0000E-05   0.000    
  12   1.0000E-05  1.0000E-05  1.0000E-05  1.0000E-05  1.0000E-05  1.0000E-05  1.0000E-05  1.0000E-05  1.0000E-05   0.000    
  13   1.0000E-05  1.0000E-05  1.0000E-05  1.0000E-05  1.0000E-05  1.0000E-05  1.0000E-05  1.0000E-05  1.0000E-05   0.000    
  14    0.000      1.0000E-05  1.0000E-05  1.0000E-05  1.0000E-05  1.0000E-05  1.0000E-05  1.0000E-05  1.0000E-05   0.000    
  15    0.000       0.000      1.0000E-05  1.0000E-05  1.0000E-05  1.0000E-05   0.000       0.000       0.000       0.000    

     BROOKS-COREY EPSILON =   7.50000    

  SATURATED WATER CONTENT =  0.380000    

   RESIDUAL WATER CONTENT =  0.200000    

    INITIAL WATER CONTENT =  0.200000    

UNSATURATED FLOW RESULTS WILL BE PRINTED TO SEPARATE FILES FOR SELECTED MODEL CELLS, AND TIME STEPS AS DEFINED BY OUTPUT CONTROL PACKAGE 

SELECTED MODEL CELLS ARE: 
 ROW NUMBER  COLUMN NUMBER  FORTRAN UNIT NUMBER  OUTPUT OPTION


       6             4                 65                 1
       6             5                 66                 2
       8             4                 67                 3
       0             0                 68                 4



   9 GAGING STATIONS WERE SPECIFIED.
     (Lakes are identified by a negative value of the Lake Number)
     RECORDS WILL BE WRITTEN TO SEPARATE OUTPUT FILES REPRESENTED BY FOLLOWING UNIT NUMBERS:

 Stream Gages:
  GAGE #   SEGMENT   REACH   UNIT   OUTTYPE
       1       1       4      83       1
       2       2       5      84       1
       3       3       5      85       1
       4       4       3      86       1
       5       5       4      87       4
       6       6       5      88       4
       7       7       3      89       4
       8       8       6      90       4
       9       9       1      91       5





 AG -- AG PACKAGE FOR NWT VERSION 1.1.3,  8/01/2017 INPUT READ FROM UNIT   57
 # AG options

 PROCESSING AG OPTIONS
 
 AGRICULTURAL DEMANDS WILL BE CALCULATED USING ET DEFICIT
 
 
 OPTION TO APPLY SURFACE WATER AS IRRIGATION IS ACTIVE. DIVERTED SURFACE WATER WILL BE APPLIED TO          1 CELLS/RHUS.
 
 
 OPTION TO PUMP SUPPLEMENTARY WATER FOR SURFACE DIVERSION SHORTFALL IS ACTIVATED.  A TOTAL OF             6 SUPPLEMENTAL WELLS ARE ACTIVE
 
 
 OPTION TO APPLY PUMPED WATER AS IRRIGATION IS ACTIVE. PUMPED IRRIGATION WATER WILL BE APPLIED TO          6 CELLS/RHUS.
 
 
 THE MAXIMUM NUMBER OF WELLS FOR SUPPLEMENTING DIVERSIONS OR APPLYING IRRIGATION IS          6 WELLS.
 
 
  UNFORMATTED CELL BY CELL RATES FOR SUP AND IRR WELLS WILL BE SAVED TO FILE UNIT NUMBER         -2
 
 
  UNFORMATTED CELL BY CELL RATES FOR SUP AND IRR WELLS WILL BE SAVED TO FILE UNIT NUMBER         -2
 
 
  UNFORMATTED CELL BY CELL RATES FOR SUP AND IRR WELLS WILL BE SAVED TO FILE UNIT NUMBER         -2
 
 
  UNFORMATTED CELL BY CELL RATES FOR SUP AND IRR WELLS WILL BE SAVED TO FILE UNIT NUMBER         -2
 
 
  GROUND WATER IRRIGATION, POTENTIAL AND ACTUAL ET WILL BE SAVED TO TIMES SERIES OUTPUT FILES.
 
 
  SURFACE WATER IRRIGATION, POTENTIAL AND ACTUAL ET WILL BE SAVED TO TIMES SERIES OUTPUT FILES.
 
 
  SURFACE WATER IRRIGATION, POTENTIAL AND ACTUAL ET WILL BE SAVED TO TIMES SERIES OUTPUT FILES.
 

 END PROCESSING AG OPTIONS
 # AG time series

 PROCESSING TIME SERIES

 FINISHED READING TIME SERIES
 A total number of          1 AG output time series files were activated for SURFACE WATER 
 A total number of          1 AG output time series files were activated for GROUNDWATER 
 A total number of          1 AG output time series files were activated for SURFACE WATER ET
 A total number of          0 AG output time series files were activated for GROUNDWATER ET
1
                            STRESS PERIOD NO.    1, LENGTH =   86400.00    
                            -----------------------------------------------

                              NUMBER OF TIME STEPS =     1

                               MULTIPLIER FOR DELT =     1.000

                            INITIAL TIME STEP SIZE =   86400.00    

 BOUND. NO. LAYER   ROW   COL     STAGE      CONDUCTANCE         
 ----------------------------------------------------------------
      1      1     13      1       988.0          0.3800E-01
      2      1     14      9       1045.          0.3800E-01

      2 GHB CELLS



 CLASSIFICATION & COUNT OF STREAM SEGMENTS BASED ON SOURCE OF INFLOW:

                HEADWATER     DIVERSION     RECEIVES TRIBUTARY FLOW
                ---------     ---------     -----------------------
                     3              2               4



                    INPUT DATA FOR EACH STREAM SEGMENT
 ---------------------------------------------------------------------------------------------

 SEGMENT    SEG.     INFLOW   OVERLAND   STREAM    STREAM   ICALC  OUTFLOW  DIVERSION PRIORITY
    NO.    LENGTH     RATE     RUNOFF      ET       PPT.    METH.  TO SEG.  FROM SEG.    NO.

      1  2.305E+04 2.500E+01 0.000E+00 0.000E+00 0.000E+00    4        2        0        0
      2  2.650E+04 0.000E+00 0.000E+00 0.000E+00 0.000E+00    1        6        0        0
      3  2.750E+04 2.000E+00 0.000E+00 0.000E+00 0.000E+00    0        5        1        0
      4  1.100E+04 1.000E+01 0.000E+00 0.000E+00 0.000E+00    1        5        0        0
      5  1.500E+04 0.000E+00 0.000E+00 0.000E+00 0.000E+00    3        6        0        0
      6  2.200E+04 0.000E+00 0.000E+00 0.000E+00 0.000E+00    1        8        0        0
      7  1.550E+04 1.500E+02 0.000E+00 0.000E+00 0.000E+00    2        8        0        0
      8  2.800E+04 0.000E+00 0.000E+00 0.000E+00 0.000E+00    2        0        0        0
      9  6.000E+03 0.000E+00 0.000E+00 0.000E+00 0.000E+00    1        0        2        0


         STREAMBED PROPERTIES AND STREAM DIMENSIONS

 SEGMENT     BED HYD. COND.      BED THICKNESS     ELEV.-TOP OF BED     WIDTH OF STREAM     DEPTH OF STREAM    STREAM ROUGHNESS
    No.     UPPER     LOWER     UPPER     LOWER     UPPER     LOWER     UPPER     LOWER     UPPER     LOWER   CHANNEL      BANK

     1  3.000E-05 3.000E-05 3.000E+00 3.000E+00 1.095E+03 1.075E+03
     2  3.000E-05 3.000E-05 3.000E+00 3.000E+00 1.075E+03 1.050E+03 1.200E+01 1.200E+01                     3.000E-02
     3  3.000E-05 3.000E-05 2.000E+00 2.000E+00 1.075E+03 1.060E+03 1.000E+01 6.000E+00 2.000E+00 1.000E+00
     4  3.000E-05 3.000E-05 3.000E+00 3.000E+00 1.080E+03 1.060E+03 1.000E+01 1.000E+01                     3.000E-02
     5  3.000E-05 3.000E-05 3.000E+00 3.000E+00 1.060E+03 1.045E+03
     6  3.000E-05 3.000E-05 3.000E+00 3.000E+00 1.045E+03 1.025E+03 1.200E+01 1.200E+01                     3.000E-02
     7  6.000E-05 6.000E-05 3.000E+00 3.000E+00 1.040E+03 1.025E+03                                         2.500E-02 4.500E-02
     8  6.000E-05 6.000E-05 3.000E+00 3.000E+00 1.025E+03 9.900E+02                                         2.500E-02 4.500E-02
     9  0.000E+00 0.000E+00 3.000E+00 3.000E+00 1.079E+03 1.078E+03 4.000E+00 4.000E+00                     3.000E-02

  EIGHT POINT CROSS-SECTION DATA FOR SEGMENTS WITH ICALC = 2
    X VALUES X VALUES START FROM LEFT SIDE LOOKING DOWNSTREAM

     SEGMENT NO.        X1        X2        X3        X4        X5        X6        X7        X8
            7      0.000E+00 1.000E+01 8.000E+01 1.000E+02 1.500E+02 1.700E+02 2.400E+02 2.500E+02
            8      0.000E+00 1.000E+01 8.000E+01 1.000E+02 1.500E+02 1.700E+02 2.400E+02 2.500E+02

    Z VALUES ARE RELATIVE TO STREAMBED ELEVATION

     SEGMENT NO.          Z1        Z2        Z3        Z4        Z5        Z6        Z7        Z8
            7      2.000E+01 1.300E+01 1.000E+01 2.000E+00 0.000E+00 1.000E+01 1.300E+01 2.000E+01
            8      2.500E+01 1.700E+01 1.300E+01 4.000E+00 0.000E+00 1.000E+01 1.600E+01 2.000E+01

 STREAMFLOW RELATION WITH DEPTH IS BASED ON EQUATION Q = CDPTH*(DEPTH)**FDPTH
 STREAMFLOW RELATION WITH WIDTH IS BASED ON EQUATION Q = AWDTH*(WIDTH)**BWDTH

 SEGMENT NO.      CDPTH     FDPTH    AWDTH     BWDTH

          5 3.000E-01 3.500E-01 3.800E+00 6.000E-01

 STREAMFLOW RELATION WITH DEPTH AND WIDTH IS BASED ON TABULATED VALUES

  SEGMENT NO.   STREAMFLOW       DEPTH       WIDTH

          1     5.0000E-01   2.5000E-01   3.0000E+00
          1     1.0000E+00   4.0000E-01   3.5000E+00
          1     2.0000E+00   5.5000E-01   4.2000E+00
          1     4.0000E+00   7.0000E-01   5.3000E+00
          1     7.0000E+00   8.0000E-01   7.0000E+00
          1     1.0000E+01   9.0000E-01   8.5000E+00
          1     2.0000E+01   1.1000E+00   1.2000E+01
          1     3.0000E+01   1.2500E+00   1.4000E+01
          1     5.0000E+01   1.4000E+00   1.7000E+01
          1     7.5000E+01   1.7000E+00   2.0000E+01
          1     1.0000E+02   1.8000E+00   2.2000E+01



TABULAR INFLOWS WERE READ FOR SEGMENT      1
FROM FILE UNIT NUMBER     55

          TIMES                    INFLOWS
         0.0000000000E+00     0.1875000000E+01
         0.8640000000E+05     0.8250000000E+01
         0.2760000000E+07     0.1575000000E+02
         0.5270000000E+07     0.2887500000E+02
         0.7950000000E+07     0.1050000000E+02
         0.1050000000E+08     0.3712500000E+02
         0.1320000000E+08     0.3112500000E+02
         0.1580000000E+08     0.2812500000E+02
         0.1850000000E+08     0.2287500000E+02
         0.2120000000E+08     0.1762500000E+02
         0.2380000000E+08     0.1312500000E+02
         0.2640000000E+08     0.9750000000E+01
         0.2900000000E+08     0.8625000000E+01
         0.3170000000E+08     0.7125000000E+01
         0.3440000000E+08     0.7875000000E+01
         0.3680000000E+08     0.3675000000E+02
         0.3950000000E+08     0.2812500000E+02
         0.4210000000E+08     0.2362500000E+02
         0.4480000000E+08     0.2175000000E+02
         0.4730000000E+08     0.2025000000E+02
         0.5000000000E+08     0.1387500000E+02
         0.5270000000E+08     0.9375000000E+01
         0.5530000000E+08     0.8250000000E+01
         0.5800000000E+08     0.7875000000E+01
         0.6060000000E+08     0.7500000000E+01
         0.6320000000E+08     0.7125000000E+01
         0.6330000000E+08     0.8250000000E+01
         0.6600000000E+08     0.1575000000E+02
         0.6850000000E+08     0.2887500000E+02
         0.7120000000E+08     0.1050000000E+02
         0.7370000000E+08     0.3712500000E+02
         0.7640000000E+08     0.3112500000E+02
         0.7900000000E+08     0.2812500000E+02
         0.8170000000E+08     0.2287500000E+02
         0.8440000000E+08     0.1762500000E+02
         0.8700000000E+08     0.1312500000E+02
         0.8960000000E+08     0.9750000000E+01
         0.9220000000E+08     0.8625000000E+01
         0.9490000000E+08     0.7125000000E+01
         0.9760000000E+08     0.7875000000E+01
         0.1000000000E+09     0.3675000000E+02
         0.1030000000E+09     0.2812500000E+02
         0.1050000000E+09     0.2362500000E+02
         0.1080000000E+09     0.2175000000E+02
         0.1110000000E+09     0.2025000000E+02
         0.1130000000E+09     0.1387500000E+02
         0.1160000000E+09     0.9375000000E+01
         0.1190000000E+09     0.8250000000E+01
         0.1210000000E+09     0.7875000000E+01
         0.1240000000E+09     0.7500000000E+01
         0.1260000000E+09     0.7125000000E+01
TABULAR INFLOWS WERE READ FOR SEGMENT      9
FROM FILE UNIT NUMBER     56

          TIMES                    INFLOWS
         0.0000000000E+00     0.1000000000E+03
         0.8640000000E+05     0.1000000000E+03
         0.1730000000E+06     0.1000000000E+03
         0.2590000000E+06     0.1000000000E+03
         0.3460000000E+06     0.1000000000E+03
         0.4320000000E+06     0.1000000000E+03
         0.5180000000E+06     0.1000000000E+03
         0.6050000000E+06     0.1000000000E+03
         0.6910000000E+06     0.1000000000E+03
         0.7780000000E+06     0.1000000000E+03
         0.8640000000E+06     0.1000000000E+03
         0.9500000000E+06     0.1000000000E+03
         0.1040000000E+07     0.1000000000E+03
         0.1120000000E+07     0.1000000000E+03
         0.1210000000E+07     0.1000000000E+03
         0.1300000000E+07     0.1000000000E+03
         0.1380000000E+07     0.1000000000E+03
         0.1470000000E+07     0.1000000000E+03
         0.1560000000E+07     0.1000000000E+03
         0.1640000000E+07     0.1000000000E+03
         0.1730000000E+07     0.1000000000E+03
         0.1810000000E+07     0.1000000000E+03
         0.1900000000E+07     0.1000000000E+03
         0.1990000000E+07     0.1000000000E+03
         0.2070000000E+07     0.1000000000E+03
         0.2160000000E+07     0.1000000000E+03
         0.2250000000E+07     0.1000000000E+03
         0.2330000000E+07     0.1000000000E+03
         0.2420000000E+07     0.1000000000E+03
         0.2510000000E+07     0.1000000000E+03
         0.2590000000E+07     0.1000000000E+03
         0.2680000000E+07     0.1000000000E+03
         0.2760000000E+07     0.1000000000E+03
         0.2850000000E+07     0.1000000000E+03
         0.2940000000E+07     0.1000000000E+03
         0.3020000000E+07     0.1000000000E+03
         0.3110000000E+07     0.1000000000E+03
         0.3200000000E+07     0.1000000000E+03
         0.3280000000E+07     0.1000000000E+03
         0.3370000000E+07     0.1000000000E+03
         0.3460000000E+07     0.1000000000E+03
         0.3540000000E+07     0.1000000000E+03
         0.3630000000E+07     0.1000000000E+03
         0.3720000000E+07     0.1000000000E+03
         0.3800000000E+07     0.1000000000E+03
         0.3890000000E+07     0.1000000000E+03
         0.3970000000E+07     0.1000000000E+03
         0.4060000000E+07     0.1000000000E+03
         0.4150000000E+07     0.1000000000E+03
         0.4230000000E+07     0.1000000000E+03
         0.4320000000E+07     0.1000000000E+03
         0.4410000000E+07     0.1000000000E+03
         0.4490000000E+07     0.1000000000E+03
         0.4580000000E+07     0.1000000000E+03
         0.4670000000E+07     0.1000000000E+03
         0.4750000000E+07     0.1000000000E+03
         0.4840000000E+07     0.1000000000E+03
         0.4920000000E+07     0.1000000000E+03
         0.5010000000E+07     0.1000000000E+03
         0.5100000000E+07     0.1000000000E+03
         0.5180000000E+07     0.1000000000E+03
         0.5270000000E+07     0.1000000000E+03
         0.5360000000E+07     0.1000000000E+03
         0.5440000000E+07     0.1000000000E+03
         0.5530000000E+07     0.1000000000E+03
         0.5620000000E+07     0.1000000000E+03
         0.5700000000E+07     0.1000000000E+03
         0.5790000000E+07     0.1000000000E+03
         0.5880000000E+07     0.1000000000E+03
         0.5960000000E+07     0.1000000000E+03
         0.6050000000E+07     0.1000000000E+03
         0.6130000000E+07     0.1000000000E+03
         0.6220000000E+07     0.1000000000E+03
         0.6310000000E+07     0.1000000000E+03
         0.6390000000E+07     0.1000000000E+03
         0.6480000000E+07     0.1000000000E+03
         0.6570000000E+07     0.1000000000E+03
         0.6650000000E+07     0.1000000000E+03
         0.6740000000E+07     0.1000000000E+03
         0.6830000000E+07     0.1000000000E+03
         0.6910000000E+07     0.1000000000E+03
         0.7000000000E+07     0.1000000000E+03
         0.7080000000E+07     0.1000000000E+03
         0.7170000000E+07     0.1000000000E+03
         0.7260000000E+07     0.1000000000E+03
         0.7340000000E+07     0.1000000000E+03
         0.7430000000E+07     0.1000000000E+03
         0.7520000000E+07     0.1000000000E+03
         0.7600000000E+07     0.1000000000E+03
         0.7690000000E+07     0.1000000000E+03
         0.7780000000E+07     0.1000000000E+03
         0.7860000000E+07     0.1000000000E+03
         0.7950000000E+07     0.1000000000E+03
         0.8040000000E+07     0.1000000000E+03
         0.8120000000E+07     0.1000000000E+03
         0.8210000000E+07     0.1000000000E+03
         0.8290000000E+07     0.1000000000E+03
         0.8380000000E+07     0.1000000000E+03
         0.8470000000E+07     0.1000000000E+03
         0.8550000000E+07     0.1000000000E+03
         0.8640000000E+07     0.1000000000E+03
         0.8730000000E+07     0.1000000000E+03
         0.8810000000E+07     0.1000000000E+03
         0.8900000000E+07     0.1000000000E+03
         0.8990000000E+07     0.1000000000E+03
         0.9070000000E+07     0.1000000000E+03
         0.9160000000E+07     0.1000000000E+03
         0.9240000000E+07     0.1000000000E+03
         0.9330000000E+07     0.1000000000E+03
         0.9420000000E+07     0.1000000000E+03
         0.9500000000E+07     0.1000000000E+03
         0.9590000000E+07     0.1000000000E+03
         0.9680000000E+07     0.1000000000E+03
         0.9760000000E+07     0.1000000000E+03
         0.9850000000E+07     0.1000000000E+03
         0.9940000000E+07     0.1000000000E+03
         0.1000000000E+08     0.1000000000E+03
         0.1010000000E+08     0.1000000000E+03
         0.1020000000E+08     0.1000000000E+03
         0.1030000000E+08     0.1000000000E+03
         0.1040000000E+08     0.1000000000E+03
         0.1050000000E+08     0.1000000000E+03
         0.1050000000E+08     0.1000000000E+03
         0.1060000000E+08     0.1000000000E+03
         0.1070000000E+08     0.1000000000E+03
         0.1080000000E+08     0.1000000000E+03
         0.1090000000E+08     0.1000000000E+03
         0.1100000000E+08     0.1000000000E+03
         0.1110000000E+08     0.1000000000E+03
         0.1110000000E+08     0.1000000000E+03
         0.1120000000E+08     0.1000000000E+03
         0.1130000000E+08     0.1000000000E+03
         0.1140000000E+08     0.1000000000E+03
         0.1150000000E+08     0.1000000000E+03
         0.1160000000E+08     0.1000000000E+03
         0.1170000000E+08     0.1000000000E+03
         0.1180000000E+08     0.1000000000E+03
         0.1180000000E+08     0.1000000000E+03
         0.1190000000E+08     0.1000000000E+03
         0.1200000000E+08     0.1000000000E+03
         0.1210000000E+08     0.1000000000E+03
         0.1220000000E+08     0.1000000000E+03
         0.1230000000E+08     0.1000000000E+03
         0.1240000000E+08     0.1000000000E+03
         0.1240000000E+08     0.1000000000E+03
         0.1250000000E+08     0.1000000000E+03
         0.1260000000E+08     0.1000000000E+03
         0.1270000000E+08     0.1000000000E+03
         0.1280000000E+08     0.1000000000E+03
         0.1290000000E+08     0.1000000000E+03
         0.1300000000E+08     0.1000000000E+03
         0.1300000000E+08     0.1000000000E+03
         0.1310000000E+08     0.1000000000E+03
         0.1320000000E+08     0.1000000000E+03
         0.1330000000E+08     0.1000000000E+03
         0.1340000000E+08     0.1000000000E+03
         0.1350000000E+08     0.1000000000E+03
         0.1360000000E+08     0.1000000000E+03
         0.1370000000E+08     0.1000000000E+03
         0.1370000000E+08     0.1000000000E+03
         0.1380000000E+08     0.1000000000E+03
         0.1390000000E+08     0.1000000000E+03
         0.1400000000E+08     0.1000000000E+03
         0.1410000000E+08     0.1000000000E+03
         0.1420000000E+08     0.1000000000E+03
         0.1430000000E+08     0.1000000000E+03
         0.1430000000E+08     0.1000000000E+03
         0.1440000000E+08     0.1000000000E+03
         0.1450000000E+08     0.1000000000E+03
         0.1460000000E+08     0.1000000000E+03
         0.1470000000E+08     0.1000000000E+03
         0.1480000000E+08     0.1000000000E+03
         0.1490000000E+08     0.1000000000E+03
         0.1490000000E+08     0.1000000000E+03
         0.1500000000E+08     0.1000000000E+03
         0.1510000000E+08     0.1000000000E+03
         0.1520000000E+08     0.1000000000E+03
         0.1530000000E+08     0.1000000000E+03
         0.1540000000E+08     0.1000000000E+03
         0.1550000000E+08     0.1000000000E+03
         0.1560000000E+08     0.1000000000E+03
         0.1560000000E+08     0.1000000000E+03
         0.1570000000E+08     0.1000000000E+03
         0.1580000000E+08     0.1000000000E+03
         0.1590000000E+08     0.1000000000E+03
         0.1600000000E+08     0.1000000000E+03
         0.1610000000E+08     0.1000000000E+03
         0.1620000000E+08     0.1000000000E+03
         0.1620000000E+08     0.1000000000E+03
         0.1630000000E+08     0.1000000000E+03
         0.1640000000E+08     0.1000000000E+03
         0.1650000000E+08     0.1000000000E+03
         0.1660000000E+08     0.1000000000E+03
         0.1670000000E+08     0.1000000000E+03
         0.1680000000E+08     0.1000000000E+03
         0.1680000000E+08     0.1000000000E+03
         0.1690000000E+08     0.1000000000E+03
         0.1700000000E+08     0.1000000000E+03
         0.1710000000E+08     0.1000000000E+03
         0.1720000000E+08     0.1000000000E+03
         0.1730000000E+08     0.1000000000E+03
         0.1740000000E+08     0.1000000000E+03
         0.1750000000E+08     0.1000000000E+03
         0.1750000000E+08     0.1000000000E+03
         0.1760000000E+08     0.1000000000E+03
         0.1770000000E+08     0.1000000000E+03
         0.1780000000E+08     0.1000000000E+03
         0.1790000000E+08     0.1000000000E+03
         0.1800000000E+08     0.1000000000E+03
         0.1810000000E+08     0.1000000000E+03
         0.1810000000E+08     0.1000000000E+03
         0.1820000000E+08     0.1000000000E+03
         0.1830000000E+08     0.1000000000E+03
         0.1840000000E+08     0.1000000000E+03
         0.1850000000E+08     0.1000000000E+03
         0.1860000000E+08     0.1000000000E+03
         0.1870000000E+08     0.1000000000E+03
         0.1870000000E+08     0.1000000000E+03
         0.1880000000E+08     0.1000000000E+03
         0.1890000000E+08     0.1000000000E+03
         0.1900000000E+08     0.1000000000E+03
         0.1910000000E+08     0.1000000000E+03
         0.1920000000E+08     0.1000000000E+03
         0.1930000000E+08     0.1000000000E+03
         0.1940000000E+08     0.1000000000E+03
         0.1940000000E+08     0.1000000000E+03
         0.1950000000E+08     0.1000000000E+03
         0.1960000000E+08     0.1000000000E+03
         0.1970000000E+08     0.1000000000E+03
         0.1980000000E+08     0.1000000000E+03
         0.1990000000E+08     0.1000000000E+03
         0.2000000000E+08     0.1000000000E+03
         0.2000000000E+08     0.1000000000E+03
         0.2010000000E+08     0.1000000000E+03
         0.2020000000E+08     0.1000000000E+03
         0.2030000000E+08     0.1000000000E+03
         0.2040000000E+08     0.1000000000E+03
         0.2050000000E+08     0.1000000000E+03
         0.2060000000E+08     0.1000000000E+03
         0.2070000000E+08     0.1000000000E+03
         0.2070000000E+08     0.1000000000E+03
         0.2080000000E+08     0.1000000000E+03
         0.2090000000E+08     0.1000000000E+03
         0.2100000000E+08     0.1000000000E+03
         0.2110000000E+08     0.1000000000E+03
         0.2120000000E+08     0.1000000000E+03
         0.2130000000E+08     0.1000000000E+03
         0.2130000000E+08     0.1000000000E+03
         0.2140000000E+08     0.1000000000E+03
         0.2150000000E+08     0.1000000000E+03
         0.2160000000E+08     0.1000000000E+03
         0.2170000000E+08     0.1000000000E+03
         0.2180000000E+08     0.1000000000E+03
         0.2190000000E+08     0.1000000000E+03
         0.2190000000E+08     0.1000000000E+03
         0.2200000000E+08     0.1000000000E+03
         0.2210000000E+08     0.1000000000E+03
         0.2220000000E+08     0.1000000000E+03
         0.2230000000E+08     0.1000000000E+03
         0.2240000000E+08     0.1000000000E+03
         0.2250000000E+08     0.1000000000E+03
         0.2260000000E+08     0.1000000000E+03
         0.2260000000E+08     0.1000000000E+03
         0.2270000000E+08     0.1000000000E+03
         0.2280000000E+08     0.1000000000E+03
         0.2290000000E+08     0.1000000000E+03
         0.2300000000E+08     0.1000000000E+03
         0.2310000000E+08     0.1000000000E+03
         0.2320000000E+08     0.1000000000E+03
         0.2320000000E+08     0.1000000000E+03
         0.2330000000E+08     0.1000000000E+03
         0.2340000000E+08     0.1000000000E+03
         0.2350000000E+08     0.1000000000E+03
         0.2360000000E+08     0.1000000000E+03
         0.2370000000E+08     0.1000000000E+03
         0.2380000000E+08     0.1000000000E+03
         0.2380000000E+08     0.1000000000E+03
         0.2390000000E+08     0.1000000000E+03
         0.2400000000E+08     0.1000000000E+03
         0.2410000000E+08     0.1000000000E+03
         0.2420000000E+08     0.1000000000E+03
         0.2430000000E+08     0.1000000000E+03
         0.2440000000E+08     0.1000000000E+03
         0.2450000000E+08     0.1000000000E+03
         0.2450000000E+08     0.1000000000E+03
         0.2460000000E+08     0.1000000000E+03
         0.2470000000E+08     0.1000000000E+03
         0.2480000000E+08     0.1000000000E+03
         0.2490000000E+08     0.1000000000E+03
         0.2500000000E+08     0.1000000000E+03
         0.2510000000E+08     0.1000000000E+03
         0.2510000000E+08     0.1000000000E+03
         0.2520000000E+08     0.1000000000E+03
         0.2530000000E+08     0.1000000000E+03
         0.2540000000E+08     0.1000000000E+03
         0.2550000000E+08     0.1000000000E+03
         0.2560000000E+08     0.1000000000E+03
         0.2570000000E+08     0.1000000000E+03
         0.2570000000E+08     0.1000000000E+03
         0.2580000000E+08     0.1000000000E+03
         0.2590000000E+08     0.1000000000E+03
         0.2600000000E+08     0.1000000000E+03
         0.2610000000E+08     0.1000000000E+03
         0.2620000000E+08     0.1000000000E+03
         0.2630000000E+08     0.1000000000E+03
         0.2640000000E+08     0.1000000000E+03
         0.2640000000E+08     0.1000000000E+03
         0.2650000000E+08     0.1000000000E+03
         0.2660000000E+08     0.1000000000E+03
         0.2670000000E+08     0.1000000000E+03
         0.2680000000E+08     0.1000000000E+03
         0.2690000000E+08     0.1000000000E+03
         0.2700000000E+08     0.1000000000E+03
         0.2700000000E+08     0.1000000000E+03
         0.2710000000E+08     0.1000000000E+03
         0.2720000000E+08     0.1000000000E+03
         0.2730000000E+08     0.1000000000E+03
         0.2740000000E+08     0.1000000000E+03
         0.2750000000E+08     0.1000000000E+03
         0.2760000000E+08     0.1000000000E+03
         0.2760000000E+08     0.1000000000E+03
         0.2770000000E+08     0.1000000000E+03
         0.2780000000E+08     0.1000000000E+03
         0.2790000000E+08     0.1000000000E+03
         0.2800000000E+08     0.1000000000E+03
         0.2810000000E+08     0.1000000000E+03
         0.2820000000E+08     0.1000000000E+03
         0.2830000000E+08     0.1000000000E+03
         0.2830000000E+08     0.1000000000E+03
         0.2840000000E+08     0.1000000000E+03
         0.2850000000E+08     0.1000000000E+03
         0.2860000000E+08     0.1000000000E+03
         0.2870000000E+08     0.1000000000E+03
         0.2880000000E+08     0.1000000000E+03
         0.2890000000E+08     0.1000000000E+03
         0.2890000000E+08     0.1000000000E+03
         0.2900000000E+08     0.1000000000E+03
         0.2910000000E+08     0.1000000000E+03
         0.2920000000E+08     0.1000000000E+03
         0.2930000000E+08     0.1000000000E+03
         0.2940000000E+08     0.1000000000E+03
         0.2950000000E+08     0.1000000000E+03
         0.2950000000E+08     0.1000000000E+03
         0.2960000000E+08     0.1000000000E+03
         0.2970000000E+08     0.1000000000E+03
         0.2980000000E+08     0.1000000000E+03
         0.2990000000E+08     0.1000000000E+03
         0.3000000000E+08     0.1000000000E+03
         0.3010000000E+08     0.1000000000E+03
         0.3020000000E+08     0.1000000000E+03
         0.3020000000E+08     0.1000000000E+03
         0.3030000000E+08     0.1000000000E+03
         0.3040000000E+08     0.1000000000E+03
         0.3050000000E+08     0.1000000000E+03
         0.3060000000E+08     0.1000000000E+03
         0.3070000000E+08     0.1000000000E+03
         0.3080000000E+08     0.1000000000E+03
         0.3080000000E+08     0.1000000000E+03
         0.3090000000E+08     0.1000000000E+03
         0.3100000000E+08     0.1000000000E+03
         0.3110000000E+08     0.1000000000E+03
         0.3120000000E+08     0.1000000000E+03
         0.3130000000E+08     0.1000000000E+03
         0.3140000000E+08     0.1000000000E+03
         0.3150000000E+08     0.1000000000E+03
         0.3150000000E+08     0.1000000000E+03
         0.3160000000E+08     0.1000000000E+03
         0.3170000000E+08     0.1000000000E+03
         0.3180000000E+08     0.1000000000E+03
         0.3190000000E+08     0.1000000000E+03
         0.3200000000E+08     0.1000000000E+03
         0.3210000000E+08     0.1000000000E+03
         0.3210000000E+08     0.1000000000E+03
         0.3220000000E+08     0.1000000000E+03
         0.3230000000E+08     0.1000000000E+03
         0.3240000000E+08     0.1000000000E+03
         0.3250000000E+08     0.1000000000E+03
         0.3260000000E+08     0.1000000000E+03
         0.3270000000E+08     0.1000000000E+03
         0.3270000000E+08     0.1000000000E+03
         0.3280000000E+08     0.1000000000E+03
         0.3290000000E+08     0.1000000000E+03
         0.3300000000E+08     0.1000000000E+03
         0.3310000000E+08     0.1000000000E+03
         0.3320000000E+08     0.1000000000E+03
         0.3330000000E+08     0.1000000000E+03
         0.3340000000E+08     0.1000000000E+03
         0.3340000000E+08     0.1000000000E+03
         0.3350000000E+08     0.1000000000E+03
         0.3360000000E+08     0.1000000000E+03
         0.3370000000E+08     0.1000000000E+03
         0.3380000000E+08     0.1000000000E+03
         0.3390000000E+08     0.1000000000E+03
         0.3400000000E+08     0.1000000000E+03
         0.3400000000E+08     0.1000000000E+03
         0.3410000000E+08     0.1000000000E+03
         0.3420000000E+08     0.1000000000E+03
         0.3430000000E+08     0.1000000000E+03
         0.3440000000E+08     0.1000000000E+03
         0.3450000000E+08     0.1000000000E+03
         0.3460000000E+08     0.1000000000E+03
         0.3460000000E+08     0.1000000000E+03
         0.3470000000E+08     0.1000000000E+03
         0.3480000000E+08     0.1000000000E+03
         0.3490000000E+08     0.1000000000E+03
         0.3500000000E+08     0.1000000000E+03
         0.3510000000E+08     0.1000000000E+03
         0.3520000000E+08     0.1000000000E+03
         0.3530000000E+08     0.1000000000E+03
         0.3530000000E+08     0.1000000000E+03
         0.3540000000E+08     0.1000000000E+03
         0.3550000000E+08     0.1000000000E+03
         0.3560000000E+08     0.1000000000E+03
         0.3570000000E+08     0.1000000000E+03
         0.3580000000E+08     0.1000000000E+03
         0.3590000000E+08     0.1000000000E+03
         0.3590000000E+08     0.1000000000E+03
         0.3600000000E+08     0.1000000000E+03
         0.3610000000E+08     0.1000000000E+03
         0.3620000000E+08     0.1000000000E+03
         0.3630000000E+08     0.1000000000E+03
         0.3640000000E+08     0.1000000000E+03
         0.3650000000E+08     0.1000000000E+03
         0.3650000000E+08     0.1000000000E+03
         0.3660000000E+08     0.1000000000E+03
         0.3670000000E+08     0.1000000000E+03
         0.3680000000E+08     0.1000000000E+03
         0.3690000000E+08     0.1000000000E+03
         0.3700000000E+08     0.1000000000E+03
         0.3710000000E+08     0.1000000000E+03
         0.3720000000E+08     0.1000000000E+03
         0.3720000000E+08     0.1000000000E+03
         0.3730000000E+08     0.1000000000E+03
         0.3740000000E+08     0.1000000000E+03
         0.3750000000E+08     0.1000000000E+03
         0.3760000000E+08     0.1000000000E+03
         0.3770000000E+08     0.1000000000E+03
         0.3780000000E+08     0.1000000000E+03
         0.3780000000E+08     0.1000000000E+03
         0.3790000000E+08     0.1000000000E+03
         0.3800000000E+08     0.1000000000E+03
         0.3810000000E+08     0.1000000000E+03
         0.3820000000E+08     0.1000000000E+03
         0.3830000000E+08     0.1000000000E+03
         0.3840000000E+08     0.1000000000E+03
         0.3840000000E+08     0.1000000000E+03
         0.3850000000E+08     0.1000000000E+03
         0.3860000000E+08     0.1000000000E+03
         0.3870000000E+08     0.1000000000E+03
         0.3880000000E+08     0.1000000000E+03
         0.3890000000E+08     0.1000000000E+03
         0.3900000000E+08     0.1000000000E+03
         0.3910000000E+08     0.1000000000E+03
         0.3910000000E+08     0.1000000000E+03
         0.3920000000E+08     0.1000000000E+03
         0.3930000000E+08     0.1000000000E+03
         0.3940000000E+08     0.1000000000E+03
         0.3950000000E+08     0.1000000000E+03
         0.3960000000E+08     0.1000000000E+03
         0.3970000000E+08     0.1000000000E+03
         0.3970000000E+08     0.1000000000E+03
         0.3980000000E+08     0.1000000000E+03
         0.3990000000E+08     0.1000000000E+03
         0.4000000000E+08     0.1000000000E+03
         0.4010000000E+08     0.1000000000E+03
         0.4020000000E+08     0.1000000000E+03
         0.4030000000E+08     0.1000000000E+03
         0.4030000000E+08     0.1000000000E+03
         0.4040000000E+08     0.1000000000E+03
         0.4050000000E+08     0.1000000000E+03
         0.4060000000E+08     0.1000000000E+03
         0.4070000000E+08     0.1000000000E+03
         0.4080000000E+08     0.1000000000E+03
         0.4090000000E+08     0.1000000000E+03
         0.4100000000E+08     0.1000000000E+03
         0.4100000000E+08     0.1000000000E+03
         0.4110000000E+08     0.1000000000E+03
         0.4120000000E+08     0.1000000000E+03
         0.4130000000E+08     0.1000000000E+03
         0.4140000000E+08     0.1000000000E+03
         0.4150000000E+08     0.1000000000E+03
         0.4160000000E+08     0.1000000000E+03
         0.4160000000E+08     0.1000000000E+03
         0.4170000000E+08     0.1000000000E+03
         0.4180000000E+08     0.1000000000E+03
         0.4190000000E+08     0.1000000000E+03
         0.4200000000E+08     0.1000000000E+03
         0.4210000000E+08     0.1000000000E+03
         0.4220000000E+08     0.1000000000E+03
         0.4230000000E+08     0.1000000000E+03
         0.4230000000E+08     0.1000000000E+03
         0.4240000000E+08     0.1000000000E+03
         0.4250000000E+08     0.1000000000E+03
         0.4260000000E+08     0.1000000000E+03
         0.4270000000E+08     0.1000000000E+03
         0.4280000000E+08     0.1000000000E+03
         0.4290000000E+08     0.1000000000E+03
         0.4290000000E+08     0.1000000000E+03
         0.4300000000E+08     0.1000000000E+03
         0.4310000000E+08     0.1000000000E+03
         0.4320000000E+08     0.1000000000E+03
         0.4330000000E+08     0.1000000000E+03
         0.4340000000E+08     0.1000000000E+03
         0.4350000000E+08     0.1000000000E+03
         0.4350000000E+08     0.1000000000E+03
         0.4360000000E+08     0.1000000000E+03
         0.4370000000E+08     0.1000000000E+03
         0.4380000000E+08     0.1000000000E+03
         0.4390000000E+08     0.1000000000E+03
         0.4400000000E+08     0.1000000000E+03
         0.4410000000E+08     0.1000000000E+03
         0.4420000000E+08     0.1000000000E+03
         0.4420000000E+08     0.1000000000E+03
         0.4430000000E+08     0.1000000000E+03
         0.4440000000E+08     0.1000000000E+03
         0.4450000000E+08     0.1000000000E+03
         0.4460000000E+08     0.1000000000E+03
         0.4470000000E+08     0.1000000000E+03
         0.4480000000E+08     0.1000000000E+03
         0.4480000000E+08     0.1000000000E+03
         0.4490000000E+08     0.1000000000E+03
         0.4500000000E+08     0.1000000000E+03
         0.4510000000E+08     0.1000000000E+03
         0.4520000000E+08     0.1000000000E+03
         0.4530000000E+08     0.1000000000E+03
         0.4540000000E+08     0.1000000000E+03
         0.4540000000E+08     0.1000000000E+03
         0.4550000000E+08     0.1000000000E+03
         0.4560000000E+08     0.1000000000E+03
         0.4570000000E+08     0.1000000000E+03
         0.4580000000E+08     0.1000000000E+03
         0.4590000000E+08     0.1000000000E+03
         0.4600000000E+08     0.1000000000E+03
         0.4610000000E+08     0.1000000000E+03
         0.4610000000E+08     0.1000000000E+03
         0.4620000000E+08     0.1000000000E+03
         0.4630000000E+08     0.1000000000E+03
         0.4640000000E+08     0.1000000000E+03
         0.4650000000E+08     0.1000000000E+03
         0.4660000000E+08     0.1000000000E+03
         0.4670000000E+08     0.1000000000E+03
         0.4670000000E+08     0.1000000000E+03
         0.4680000000E+08     0.1000000000E+03
         0.4690000000E+08     0.1000000000E+03
         0.4700000000E+08     0.1000000000E+03
         0.4710000000E+08     0.1000000000E+03
         0.4720000000E+08     0.1000000000E+03
         0.4730000000E+08     0.1000000000E+03
         0.4730000000E+08     0.1000000000E+03
         0.4740000000E+08     0.1000000000E+03
         0.4750000000E+08     0.1000000000E+03
         0.4760000000E+08     0.1000000000E+03
         0.4770000000E+08     0.1000000000E+03
         0.4780000000E+08     0.1000000000E+03
         0.4790000000E+08     0.1000000000E+03
         0.4800000000E+08     0.1000000000E+03
         0.4800000000E+08     0.1000000000E+03
         0.4810000000E+08     0.1000000000E+03
         0.4820000000E+08     0.1000000000E+03
         0.4830000000E+08     0.1000000000E+03
         0.4840000000E+08     0.1000000000E+03
         0.4850000000E+08     0.1000000000E+03
         0.4860000000E+08     0.1000000000E+03
         0.4860000000E+08     0.1000000000E+03
         0.4870000000E+08     0.1000000000E+03
         0.4880000000E+08     0.1000000000E+03
         0.4890000000E+08     0.1000000000E+03
         0.4900000000E+08     0.1000000000E+03
         0.4910000000E+08     0.1000000000E+03
         0.4920000000E+08     0.1000000000E+03
         0.4920000000E+08     0.1000000000E+03
         0.4930000000E+08     0.1000000000E+03
         0.4940000000E+08     0.1000000000E+03
         0.4950000000E+08     0.1000000000E+03
         0.4960000000E+08     0.1000000000E+03
         0.4970000000E+08     0.1000000000E+03
         0.4980000000E+08     0.1000000000E+03
         0.4990000000E+08     0.1000000000E+03
         0.4990000000E+08     0.1000000000E+03
         0.5000000000E+08     0.1000000000E+03
         0.5010000000E+08     0.1000000000E+03
         0.5020000000E+08     0.1000000000E+03
         0.5030000000E+08     0.1000000000E+03
         0.5040000000E+08     0.1000000000E+03
         0.5050000000E+08     0.1000000000E+03
         0.5050000000E+08     0.1000000000E+03
         0.5060000000E+08     0.1000000000E+03
         0.5070000000E+08     0.1000000000E+03
         0.5080000000E+08     0.1000000000E+03
         0.5090000000E+08     0.1000000000E+03
         0.5100000000E+08     0.1000000000E+03
         0.5110000000E+08     0.1000000000E+03
         0.5110000000E+08     0.1000000000E+03
         0.5120000000E+08     0.1000000000E+03
         0.5130000000E+08     0.1000000000E+03
         0.5140000000E+08     0.1000000000E+03
         0.5150000000E+08     0.1000000000E+03
         0.5160000000E+08     0.1000000000E+03
         0.5170000000E+08     0.1000000000E+03
         0.5180000000E+08     0.1000000000E+03
         0.5180000000E+08     0.1000000000E+03
         0.5190000000E+08     0.1000000000E+03
         0.5200000000E+08     0.1000000000E+03
         0.5210000000E+08     0.1000000000E+03
         0.5220000000E+08     0.1000000000E+03
         0.5230000000E+08     0.1000000000E+03
         0.5240000000E+08     0.1000000000E+03
         0.5240000000E+08     0.1000000000E+03
         0.5250000000E+08     0.1000000000E+03
         0.5260000000E+08     0.1000000000E+03
         0.5270000000E+08     0.1000000000E+03
         0.5280000000E+08     0.1000000000E+03
         0.5290000000E+08     0.1000000000E+03
         0.5300000000E+08     0.1000000000E+03
         0.5310000000E+08     0.1000000000E+03
         0.5310000000E+08     0.1000000000E+03
         0.5320000000E+08     0.1000000000E+03
         0.5330000000E+08     0.1000000000E+03
         0.5340000000E+08     0.1000000000E+03
         0.5350000000E+08     0.1000000000E+03
         0.5360000000E+08     0.1000000000E+03
         0.5370000000E+08     0.1000000000E+03
         0.5370000000E+08     0.1000000000E+03
         0.5380000000E+08     0.1000000000E+03
         0.5390000000E+08     0.1000000000E+03
         0.5400000000E+08     0.1000000000E+03
         0.5410000000E+08     0.1000000000E+03
         0.5420000000E+08     0.1000000000E+03
         0.5430000000E+08     0.1000000000E+03
         0.5430000000E+08     0.1000000000E+03
         0.5440000000E+08     0.1000000000E+03
         0.5450000000E+08     0.1000000000E+03
         0.5460000000E+08     0.1000000000E+03
         0.5470000000E+08     0.1000000000E+03
         0.5480000000E+08     0.1000000000E+03
         0.5490000000E+08     0.1000000000E+03
         0.5500000000E+08     0.1000000000E+03
         0.5500000000E+08     0.1000000000E+03
         0.5510000000E+08     0.1000000000E+03
         0.5520000000E+08     0.1000000000E+03
         0.5530000000E+08     0.1000000000E+03
         0.5540000000E+08     0.1000000000E+03
         0.5550000000E+08     0.1000000000E+03
         0.5560000000E+08     0.1000000000E+03
         0.5560000000E+08     0.1000000000E+03
         0.5570000000E+08     0.1000000000E+03
         0.5580000000E+08     0.1000000000E+03
         0.5590000000E+08     0.1000000000E+03
         0.5600000000E+08     0.1000000000E+03
         0.5610000000E+08     0.1000000000E+03
         0.5620000000E+08     0.1000000000E+03
         0.5620000000E+08     0.1000000000E+03
         0.5630000000E+08     0.1000000000E+03
         0.5640000000E+08     0.1000000000E+03
         0.5650000000E+08     0.1000000000E+03
         0.5660000000E+08     0.1000000000E+03
         0.5670000000E+08     0.1000000000E+03
         0.5680000000E+08     0.1000000000E+03
         0.5690000000E+08     0.1000000000E+03
         0.5690000000E+08     0.1000000000E+03
         0.5700000000E+08     0.1000000000E+03
         0.5710000000E+08     0.1000000000E+03
         0.5720000000E+08     0.1000000000E+03
         0.5730000000E+08     0.1000000000E+03
         0.5740000000E+08     0.1000000000E+03
         0.5750000000E+08     0.1000000000E+03
         0.5750000000E+08     0.1000000000E+03
         0.5760000000E+08     0.1000000000E+03
         0.5770000000E+08     0.1000000000E+03
         0.5780000000E+08     0.1000000000E+03
         0.5790000000E+08     0.1000000000E+03
         0.5800000000E+08     0.1000000000E+03
         0.5810000000E+08     0.1000000000E+03
         0.5810000000E+08     0.1000000000E+03
         0.5820000000E+08     0.1000000000E+03
         0.5830000000E+08     0.1000000000E+03
         0.5840000000E+08     0.1000000000E+03
         0.5850000000E+08     0.1000000000E+03
         0.5860000000E+08     0.1000000000E+03
         0.5870000000E+08     0.1000000000E+03
         0.5880000000E+08     0.1000000000E+03
         0.5880000000E+08     0.1000000000E+03
         0.5890000000E+08     0.1000000000E+03
         0.5900000000E+08     0.1000000000E+03
         0.5910000000E+08     0.1000000000E+03
         0.5920000000E+08     0.1000000000E+03
         0.5930000000E+08     0.1000000000E+03
         0.5940000000E+08     0.1000000000E+03
         0.5940000000E+08     0.1000000000E+03
         0.5950000000E+08     0.1000000000E+03
         0.5960000000E+08     0.1000000000E+03
         0.5970000000E+08     0.1000000000E+03
         0.5980000000E+08     0.1000000000E+03
         0.5990000000E+08     0.1000000000E+03
         0.6000000000E+08     0.1000000000E+03
         0.6000000000E+08     0.1000000000E+03
         0.6010000000E+08     0.1000000000E+03
         0.6020000000E+08     0.1000000000E+03
         0.6030000000E+08     0.1000000000E+03
         0.6040000000E+08     0.1000000000E+03
         0.6050000000E+08     0.1000000000E+03
         0.6060000000E+08     0.1000000000E+03
         0.6070000000E+08     0.1000000000E+03
         0.6070000000E+08     0.1000000000E+03
         0.6080000000E+08     0.1000000000E+03
         0.6090000000E+08     0.1000000000E+03
         0.6100000000E+08     0.1000000000E+03
         0.6110000000E+08     0.1000000000E+03
         0.6120000000E+08     0.1000000000E+03
         0.6130000000E+08     0.1000000000E+03
         0.6130000000E+08     0.1000000000E+03
         0.6140000000E+08     0.1000000000E+03
         0.6150000000E+08     0.1000000000E+03
         0.6160000000E+08     0.1000000000E+03
         0.6170000000E+08     0.1000000000E+03
         0.6180000000E+08     0.1000000000E+03
         0.6190000000E+08     0.1000000000E+03
         0.6190000000E+08     0.1000000000E+03
         0.6200000000E+08     0.1000000000E+03
         0.6210000000E+08     0.1000000000E+03
         0.6220000000E+08     0.1000000000E+03
         0.6230000000E+08     0.1000000000E+03
         0.6240000000E+08     0.1000000000E+03
         0.6250000000E+08     0.1000000000E+03
         0.6260000000E+08     0.1000000000E+03
         0.6260000000E+08     0.1000000000E+03
         0.6270000000E+08     0.1000000000E+03
         0.6280000000E+08     0.1000000000E+03
         0.6290000000E+08     0.1000000000E+03
         0.6300000000E+08     0.1000000000E+03
         0.6310000000E+08     0.1000000000E+03
         0.6320000000E+08     0.1000000000E+03
         0.6320000000E+08     0.1000000000E+03
         0.6330000000E+08     0.1000000000E+03
         0.6340000000E+08     0.1000000000E+03
         0.6350000000E+08     0.1000000000E+03
         0.6360000000E+08     0.1000000000E+03
         0.6370000000E+08     0.1000000000E+03
         0.6380000000E+08     0.1000000000E+03
         0.6390000000E+08     0.1000000000E+03
         0.6390000000E+08     0.1000000000E+03
         0.6400000000E+08     0.1000000000E+03
         0.6410000000E+08     0.1000000000E+03
         0.6420000000E+08     0.1000000000E+03
         0.6430000000E+08     0.1000000000E+03
         0.6440000000E+08     0.1000000000E+03
         0.6450000000E+08     0.1000000000E+03
         0.6450000000E+08     0.1000000000E+03
         0.6460000000E+08     0.1000000000E+03
         0.6470000000E+08     0.1000000000E+03
         0.6480000000E+08     0.1000000000E+03
         0.6490000000E+08     0.1000000000E+03
         0.6500000000E+08     0.1000000000E+03
         0.6510000000E+08     0.1000000000E+03
         0.6510000000E+08     0.1000000000E+03
         0.6520000000E+08     0.1000000000E+03
         0.6530000000E+08     0.1000000000E+03
         0.6540000000E+08     0.1000000000E+03
         0.6550000000E+08     0.1000000000E+03
         0.6560000000E+08     0.1000000000E+03
         0.6570000000E+08     0.1000000000E+03
         0.6580000000E+08     0.1000000000E+03
         0.6590000000E+08     0.1000000000E+03
         0.6600000000E+08     0.1000000000E+03
         0.6610000000E+08     0.1000000000E+03
         0.6610000000E+08     0.1000000000E+03
         0.6620000000E+08     0.1000000000E+03
         0.6630000000E+08     0.1000000000E+03
         0.6640000000E+08     0.1000000000E+03
         0.6650000000E+08     0.1000000000E+03
         0.6660000000E+08     0.1000000000E+03
         0.6670000000E+08     0.1000000000E+03
         0.6670000000E+08     0.1000000000E+03
         0.6680000000E+08     0.1000000000E+03
         0.6690000000E+08     0.1000000000E+03
         0.6700000000E+08     0.1000000000E+03
         0.6710000000E+08     0.1000000000E+03
         0.6720000000E+08     0.1000000000E+03
         0.6730000000E+08     0.1000000000E+03
         0.6730000000E+08     0.1000000000E+03
         0.6740000000E+08     0.1000000000E+03
         0.6750000000E+08     0.1000000000E+03
         0.6760000000E+08     0.1000000000E+03
         0.6770000000E+08     0.1000000000E+03
         0.6780000000E+08     0.1000000000E+03
         0.6790000000E+08     0.1000000000E+03
         0.6800000000E+08     0.1000000000E+03
         0.6810000000E+08     0.1000000000E+03
         0.6820000000E+08     0.1000000000E+03
         0.6830000000E+08     0.1000000000E+03
         0.6830000000E+08     0.1000000000E+03
         0.6840000000E+08     0.1000000000E+03
         0.6850000000E+08     0.1000000000E+03
         0.6860000000E+08     0.1000000000E+03
         0.6870000000E+08     0.1000000000E+03
         0.6880000000E+08     0.1000000000E+03
         0.6890000000E+08     0.1000000000E+03
         0.6890000000E+08     0.1000000000E+03
         0.6900000000E+08     0.1000000000E+03
         0.6910000000E+08     0.1000000000E+03
         0.6920000000E+08     0.1000000000E+03
         0.6930000000E+08     0.1000000000E+03
         0.6940000000E+08     0.1000000000E+03
         0.6950000000E+08     0.1000000000E+03
         0.6950000000E+08     0.1000000000E+03
         0.6960000000E+08     0.1000000000E+03
         0.6970000000E+08     0.1000000000E+03
         0.6980000000E+08     0.1000000000E+03
         0.6990000000E+08     0.1000000000E+03
         0.7000000000E+08     0.1000000000E+03
         0.7010000000E+08     0.1000000000E+03
         0.7020000000E+08     0.1000000000E+03
         0.7030000000E+08     0.1000000000E+03
         0.7040000000E+08     0.1000000000E+03
         0.7050000000E+08     0.1000000000E+03
         0.7050000000E+08     0.1000000000E+03
         0.7060000000E+08     0.1000000000E+03
         0.7070000000E+08     0.1000000000E+03
         0.7080000000E+08     0.1000000000E+03
         0.7090000000E+08     0.1000000000E+03
         0.7100000000E+08     0.1000000000E+03
         0.7110000000E+08     0.1000000000E+03
         0.7110000000E+08     0.1000000000E+03
         0.7120000000E+08     0.1000000000E+03
         0.7130000000E+08     0.1000000000E+03
         0.7140000000E+08     0.1000000000E+03
         0.7150000000E+08     0.1000000000E+03
         0.7160000000E+08     0.1000000000E+03
         0.7170000000E+08     0.1000000000E+03
         0.7170000000E+08     0.1000000000E+03
         0.7180000000E+08     0.1000000000E+03
         0.7190000000E+08     0.1000000000E+03
         0.7200000000E+08     0.1000000000E+03
         0.7210000000E+08     0.1000000000E+03
         0.7220000000E+08     0.1000000000E+03
         0.7230000000E+08     0.1000000000E+03
         0.7240000000E+08     0.1000000000E+03
         0.7250000000E+08     0.1000000000E+03
         0.7260000000E+08     0.1000000000E+03
         0.7270000000E+08     0.1000000000E+03
         0.7270000000E+08     0.1000000000E+03
         0.7280000000E+08     0.1000000000E+03
         0.7290000000E+08     0.1000000000E+03
         0.7300000000E+08     0.1000000000E+03
         0.7310000000E+08     0.1000000000E+03
         0.7320000000E+08     0.1000000000E+03
         0.7330000000E+08     0.1000000000E+03
         0.7330000000E+08     0.1000000000E+03
         0.7340000000E+08     0.1000000000E+03
         0.7350000000E+08     0.1000000000E+03
         0.7360000000E+08     0.1000000000E+03
         0.7370000000E+08     0.1000000000E+03
         0.7380000000E+08     0.1000000000E+03
         0.7390000000E+08     0.1000000000E+03
         0.7390000000E+08     0.1000000000E+03
         0.7400000000E+08     0.1000000000E+03
         0.7410000000E+08     0.1000000000E+03
         0.7420000000E+08     0.1000000000E+03
         0.7430000000E+08     0.1000000000E+03
         0.7440000000E+08     0.1000000000E+03
         0.7450000000E+08     0.1000000000E+03
         0.7460000000E+08     0.1000000000E+03
         0.7470000000E+08     0.1000000000E+03
         0.7480000000E+08     0.1000000000E+03
         0.7490000000E+08     0.1000000000E+03
         0.7490000000E+08     0.1000000000E+03
         0.7500000000E+08     0.1000000000E+03
         0.7510000000E+08     0.1000000000E+03
         0.7520000000E+08     0.1000000000E+03
         0.7530000000E+08     0.1000000000E+03
         0.7540000000E+08     0.1000000000E+03
         0.7550000000E+08     0.1000000000E+03
         0.7550000000E+08     0.1000000000E+03
         0.7560000000E+08     0.1000000000E+03
         0.7570000000E+08     0.1000000000E+03
         0.7580000000E+08     0.1000000000E+03
         0.7590000000E+08     0.1000000000E+03
         0.7600000000E+08     0.1000000000E+03
         0.7610000000E+08     0.1000000000E+03
         0.7610000000E+08     0.1000000000E+03
         0.7620000000E+08     0.1000000000E+03
         0.7630000000E+08     0.1000000000E+03
         0.7640000000E+08     0.1000000000E+03
         0.7650000000E+08     0.1000000000E+03
         0.7660000000E+08     0.1000000000E+03
         0.7670000000E+08     0.1000000000E+03
         0.7680000000E+08     0.1000000000E+03
         0.7690000000E+08     0.1000000000E+03
         0.7700000000E+08     0.1000000000E+03
         0.7710000000E+08     0.1000000000E+03
         0.7710000000E+08     0.1000000000E+03
         0.7720000000E+08     0.1000000000E+03
         0.7730000000E+08     0.1000000000E+03
         0.7740000000E+08     0.1000000000E+03
         0.7750000000E+08     0.1000000000E+03
         0.7760000000E+08     0.1000000000E+03
         0.7770000000E+08     0.1000000000E+03
         0.7770000000E+08     0.1000000000E+03
         0.7780000000E+08     0.1000000000E+03
         0.7790000000E+08     0.1000000000E+03
         0.7800000000E+08     0.1000000000E+03
         0.7810000000E+08     0.1000000000E+03
         0.7820000000E+08     0.1000000000E+03
         0.7830000000E+08     0.1000000000E+03
         0.7830000000E+08     0.1000000000E+03
         0.7840000000E+08     0.1000000000E+03
         0.7850000000E+08     0.1000000000E+03
         0.7860000000E+08     0.1000000000E+03
         0.7870000000E+08     0.1000000000E+03
         0.7880000000E+08     0.1000000000E+03
         0.7890000000E+08     0.1000000000E+03
         0.7900000000E+08     0.1000000000E+03
         0.7910000000E+08     0.1000000000E+03
         0.7920000000E+08     0.1000000000E+03
         0.7930000000E+08     0.1000000000E+03
         0.7930000000E+08     0.1000000000E+03
         0.7940000000E+08     0.1000000000E+03
         0.7950000000E+08     0.1000000000E+03
         0.7960000000E+08     0.1000000000E+03
         0.7970000000E+08     0.1000000000E+03
         0.7980000000E+08     0.1000000000E+03
         0.7990000000E+08     0.1000000000E+03
         0.7990000000E+08     0.1000000000E+03
         0.8000000000E+08     0.1000000000E+03
         0.8010000000E+08     0.1000000000E+03
         0.8020000000E+08     0.1000000000E+03
         0.8030000000E+08     0.1000000000E+03
         0.8040000000E+08     0.1000000000E+03
         0.8050000000E+08     0.1000000000E+03
         0.8050000000E+08     0.1000000000E+03
         0.8060000000E+08     0.1000000000E+03
         0.8070000000E+08     0.1000000000E+03
         0.8080000000E+08     0.1000000000E+03
         0.8090000000E+08     0.1000000000E+03
         0.8100000000E+08     0.1000000000E+03
         0.8110000000E+08     0.1000000000E+03
         0.8120000000E+08     0.1000000000E+03
         0.8130000000E+08     0.1000000000E+03
         0.8140000000E+08     0.1000000000E+03
         0.8150000000E+08     0.1000000000E+03
         0.8150000000E+08     0.1000000000E+03
         0.8160000000E+08     0.1000000000E+03
         0.8170000000E+08     0.1000000000E+03
         0.8180000000E+08     0.1000000000E+03
         0.8190000000E+08     0.1000000000E+03
         0.8200000000E+08     0.1000000000E+03
         0.8210000000E+08     0.1000000000E+03
         0.8210000000E+08     0.1000000000E+03
         0.8220000000E+08     0.1000000000E+03
         0.8230000000E+08     0.1000000000E+03
         0.8240000000E+08     0.1000000000E+03
         0.8250000000E+08     0.1000000000E+03
         0.8260000000E+08     0.1000000000E+03
         0.8270000000E+08     0.1000000000E+03
         0.8270000000E+08     0.1000000000E+03
         0.8280000000E+08     0.1000000000E+03
         0.8290000000E+08     0.1000000000E+03
         0.8300000000E+08     0.1000000000E+03
         0.8310000000E+08     0.1000000000E+03
         0.8320000000E+08     0.1000000000E+03
         0.8330000000E+08     0.1000000000E+03
         0.8340000000E+08     0.1000000000E+03
         0.8350000000E+08     0.1000000000E+03
         0.8360000000E+08     0.1000000000E+03
         0.8370000000E+08     0.1000000000E+03
         0.8370000000E+08     0.1000000000E+03
         0.8380000000E+08     0.1000000000E+03
         0.8390000000E+08     0.1000000000E+03
         0.8400000000E+08     0.1000000000E+03
         0.8410000000E+08     0.1000000000E+03
         0.8420000000E+08     0.1000000000E+03
         0.8430000000E+08     0.1000000000E+03
         0.8430000000E+08     0.1000000000E+03
         0.8440000000E+08     0.1000000000E+03
         0.8450000000E+08     0.1000000000E+03
         0.8460000000E+08     0.1000000000E+03
         0.8470000000E+08     0.1000000000E+03
         0.8480000000E+08     0.1000000000E+03
         0.8490000000E+08     0.1000000000E+03
         0.8490000000E+08     0.1000000000E+03
         0.8500000000E+08     0.1000000000E+03
         0.8510000000E+08     0.1000000000E+03
         0.8520000000E+08     0.1000000000E+03
         0.8530000000E+08     0.1000000000E+03
         0.8540000000E+08     0.1000000000E+03
         0.8550000000E+08     0.1000000000E+03
         0.8560000000E+08     0.1000000000E+03
         0.8570000000E+08     0.1000000000E+03
         0.8580000000E+08     0.1000000000E+03
         0.8590000000E+08     0.1000000000E+03
         0.8590000000E+08     0.1000000000E+03
         0.8600000000E+08     0.1000000000E+03
         0.8610000000E+08     0.1000000000E+03
         0.8620000000E+08     0.1000000000E+03
         0.8630000000E+08     0.1000000000E+03
         0.8640000000E+08     0.1000000000E+03
         0.8650000000E+08     0.1000000000E+03
         0.8650000000E+08     0.1000000000E+03
         0.8660000000E+08     0.1000000000E+03
         0.8670000000E+08     0.1000000000E+03
         0.8680000000E+08     0.1000000000E+03
         0.8690000000E+08     0.1000000000E+03
         0.8700000000E+08     0.1000000000E+03
         0.8710000000E+08     0.1000000000E+03
         0.8710000000E+08     0.1000000000E+03
         0.8720000000E+08     0.1000000000E+03
         0.8730000000E+08     0.1000000000E+03
         0.8740000000E+08     0.1000000000E+03
         0.8750000000E+08     0.1000000000E+03
         0.8760000000E+08     0.1000000000E+03
         0.8770000000E+08     0.1000000000E+03
         0.8780000000E+08     0.1000000000E+03
         0.8790000000E+08     0.1000000000E+03
         0.8800000000E+08     0.1000000000E+03
         0.8810000000E+08     0.1000000000E+03
         0.8810000000E+08     0.1000000000E+03
         0.8820000000E+08     0.1000000000E+03
         0.8830000000E+08     0.1000000000E+03
         0.8840000000E+08     0.1000000000E+03
         0.8850000000E+08     0.1000000000E+03
         0.8860000000E+08     0.1000000000E+03
         0.8870000000E+08     0.1000000000E+03
         0.8870000000E+08     0.1000000000E+03
         0.8880000000E+08     0.1000000000E+03
         0.8890000000E+08     0.1000000000E+03
         0.8900000000E+08     0.1000000000E+03
         0.8910000000E+08     0.1000000000E+03
         0.8920000000E+08     0.1000000000E+03
         0.8930000000E+08     0.1000000000E+03
         0.8930000000E+08     0.1000000000E+03
         0.8940000000E+08     0.1000000000E+03
         0.8950000000E+08     0.1000000000E+03
         0.8960000000E+08     0.1000000000E+03
         0.8970000000E+08     0.1000000000E+03
         0.8980000000E+08     0.1000000000E+03
         0.8990000000E+08     0.1000000000E+03
         0.9000000000E+08     0.1000000000E+03
         0.9010000000E+08     0.1000000000E+03
         0.9020000000E+08     0.1000000000E+03
         0.9030000000E+08     0.1000000000E+03
         0.9030000000E+08     0.1000000000E+03
         0.9040000000E+08     0.1000000000E+03
         0.9050000000E+08     0.1000000000E+03
         0.9060000000E+08     0.1000000000E+03
         0.9070000000E+08     0.1000000000E+03
         0.9080000000E+08     0.1000000000E+03
         0.9090000000E+08     0.1000000000E+03
         0.9090000000E+08     0.1000000000E+03
         0.9100000000E+08     0.1000000000E+03
         0.9110000000E+08     0.1000000000E+03
         0.9120000000E+08     0.1000000000E+03
         0.9130000000E+08     0.1000000000E+03
         0.9140000000E+08     0.1000000000E+03
         0.9150000000E+08     0.1000000000E+03
         0.9150000000E+08     0.1000000000E+03
         0.9160000000E+08     0.1000000000E+03
         0.9170000000E+08     0.1000000000E+03
         0.9180000000E+08     0.1000000000E+03
         0.9190000000E+08     0.1000000000E+03
         0.9200000000E+08     0.1000000000E+03
         0.9210000000E+08     0.1000000000E+03
         0.9220000000E+08     0.1000000000E+03
         0.9230000000E+08     0.1000000000E+03
         0.9240000000E+08     0.1000000000E+03
         0.9250000000E+08     0.1000000000E+03
         0.9250000000E+08     0.1000000000E+03
         0.9260000000E+08     0.1000000000E+03
         0.9270000000E+08     0.1000000000E+03
         0.9280000000E+08     0.1000000000E+03
         0.9290000000E+08     0.1000000000E+03
         0.9300000000E+08     0.1000000000E+03
         0.9310000000E+08     0.1000000000E+03
         0.9310000000E+08     0.1000000000E+03
         0.9320000000E+08     0.1000000000E+03
         0.9330000000E+08     0.1000000000E+03
         0.9340000000E+08     0.1000000000E+03
         0.9350000000E+08     0.1000000000E+03
         0.9360000000E+08     0.1000000000E+03
         0.9370000000E+08     0.1000000000E+03
         0.9370000000E+08     0.1000000000E+03
         0.9380000000E+08     0.1000000000E+03
         0.9390000000E+08     0.1000000000E+03
         0.9400000000E+08     0.1000000000E+03
         0.9410000000E+08     0.1000000000E+03
         0.9420000000E+08     0.1000000000E+03
         0.9430000000E+08     0.1000000000E+03
         0.9440000000E+08     0.1000000000E+03
         0.9450000000E+08     0.1000000000E+03
         0.9460000000E+08     0.1000000000E+03
         0.9470000000E+08     0.1000000000E+03
         0.9470000000E+08     0.1000000000E+03
         0.9480000000E+08     0.1000000000E+03
         0.9490000000E+08     0.1000000000E+03
         0.9500000000E+08     0.1000000000E+03
         0.9510000000E+08     0.1000000000E+03
         0.9520000000E+08     0.1000000000E+03
         0.9530000000E+08     0.1000000000E+03
         0.9530000000E+08     0.1000000000E+03
         0.9540000000E+08     0.1000000000E+03
         0.9550000000E+08     0.1000000000E+03
         0.9560000000E+08     0.1000000000E+03
         0.9570000000E+08     0.1000000000E+03
         0.9580000000E+08     0.1000000000E+03
         0.9590000000E+08     0.1000000000E+03
         0.9590000000E+08     0.1000000000E+03
         0.9600000000E+08     0.1000000000E+03
         0.9610000000E+08     0.1000000000E+03
         0.9620000000E+08     0.1000000000E+03
         0.9630000000E+08     0.1000000000E+03
         0.9640000000E+08     0.1000000000E+03
         0.9650000000E+08     0.1000000000E+03
         0.9660000000E+08     0.1000000000E+03
         0.9670000000E+08     0.1000000000E+03
         0.9680000000E+08     0.1000000000E+03
         0.9690000000E+08     0.1000000000E+03
         0.9690000000E+08     0.1000000000E+03
         0.9700000000E+08     0.1000000000E+03
         0.9710000000E+08     0.1000000000E+03
         0.9720000000E+08     0.1000000000E+03
         0.9730000000E+08     0.1000000000E+03
         0.9740000000E+08     0.1000000000E+03
         0.9750000000E+08     0.1000000000E+03
         0.9750000000E+08     0.1000000000E+03
         0.9760000000E+08     0.1000000000E+03
         0.9770000000E+08     0.1000000000E+03
         0.9780000000E+08     0.1000000000E+03
         0.9790000000E+08     0.1000000000E+03
         0.9800000000E+08     0.1000000000E+03
         0.9810000000E+08     0.1000000000E+03
         0.9810000000E+08     0.1000000000E+03
         0.9820000000E+08     0.1000000000E+03
         0.9830000000E+08     0.1000000000E+03
         0.9840000000E+08     0.1000000000E+03
         0.9850000000E+08     0.1000000000E+03
         0.9860000000E+08     0.1000000000E+03
         0.9870000000E+08     0.1000000000E+03
         0.9880000000E+08     0.1000000000E+03
         0.9890000000E+08     0.1000000000E+03
         0.9900000000E+08     0.1000000000E+03
         0.9910000000E+08     0.1000000000E+03
         0.9910000000E+08     0.1000000000E+03
         0.9920000000E+08     0.1000000000E+03
         0.9930000000E+08     0.1000000000E+03
         0.9940000000E+08     0.1000000000E+03
         0.9950000000E+08     0.1000000000E+03
         0.9960000000E+08     0.1000000000E+03
         0.9970000000E+08     0.1000000000E+03
         0.9970000000E+08     0.1000000000E+03
         0.9980000000E+08     0.1000000000E+03
         0.9990000000E+08     0.1000000000E+03
         0.1000000000E+09     0.1000000000E+03
         0.1001000000E+09     0.1000000000E+03
         0.1002000000E+09     0.1000000000E+03
         0.1003000000E+09     0.1000000000E+03
         0.1003000000E+09     0.1000000000E+03
         0.1004000000E+09     0.1000000000E+03
         0.1005000000E+09     0.1000000000E+03
         0.1006000000E+09     0.1000000000E+03
         0.1007000000E+09     0.1000000000E+03
         0.1008000000E+09     0.1000000000E+03
         0.1009000000E+09     0.1000000000E+03
         0.1010000000E+09     0.1000000000E+03
         0.1011000000E+09     0.1000000000E+03
         0.1012000000E+09     0.1000000000E+03
         0.1013000000E+09     0.1000000000E+03
         0.1013000000E+09     0.1000000000E+03
         0.1014000000E+09     0.1000000000E+03
         0.1015000000E+09     0.1000000000E+03
         0.1016000000E+09     0.1000000000E+03
         0.1017000000E+09     0.1000000000E+03
         0.1018000000E+09     0.1000000000E+03
         0.1019000000E+09     0.1000000000E+03
         0.1019000000E+09     0.1000000000E+03
         0.1020000000E+09     0.1000000000E+03
         0.1021000000E+09     0.1000000000E+03
         0.1022000000E+09     0.1000000000E+03
         0.1023000000E+09     0.1000000000E+03
         0.1024000000E+09     0.1000000000E+03
         0.1025000000E+09     0.1000000000E+03
         0.1025000000E+09     0.1000000000E+03
         0.1026000000E+09     0.1000000000E+03
         0.1027000000E+09     0.1000000000E+03
         0.1028000000E+09     0.1000000000E+03
         0.1029000000E+09     0.1000000000E+03
         0.1030000000E+09     0.1000000000E+03
         0.1031000000E+09     0.1000000000E+03
         0.1032000000E+09     0.1000000000E+03
         0.1033000000E+09     0.1000000000E+03
         0.1034000000E+09     0.1000000000E+03
         0.1035000000E+09     0.1000000000E+03
         0.1035000000E+09     0.1000000000E+03
         0.1036000000E+09     0.1000000000E+03
         0.1037000000E+09     0.1000000000E+03
         0.1038000000E+09     0.1000000000E+03
         0.1039000000E+09     0.1000000000E+03
         0.1040000000E+09     0.1000000000E+03
         0.1041000000E+09     0.1000000000E+03
         0.1041000000E+09     0.1000000000E+03
         0.1042000000E+09     0.1000000000E+03
         0.1043000000E+09     0.1000000000E+03
         0.1044000000E+09     0.1000000000E+03
         0.1045000000E+09     0.1000000000E+03
         0.1046000000E+09     0.1000000000E+03
         0.1047000000E+09     0.1000000000E+03
         0.1047000000E+09     0.1000000000E+03
         0.1048000000E+09     0.1000000000E+03
         0.1049000000E+09     0.1000000000E+03
         0.1050000000E+09     0.1000000000E+03
         0.1051000000E+09     0.1000000000E+03
         0.1052000000E+09     0.1000000000E+03
         0.1053000000E+09     0.1000000000E+03
         0.1054000000E+09     0.1000000000E+03
         0.1055000000E+09     0.1000000000E+03
         0.1056000000E+09     0.1000000000E+03
         0.1057000000E+09     0.1000000000E+03
         0.1057000000E+09     0.1000000000E+03
         0.1058000000E+09     0.1000000000E+03
         0.1059000000E+09     0.1000000000E+03
         0.1060000000E+09     0.1000000000E+03
         0.1061000000E+09     0.1000000000E+03
         0.1062000000E+09     0.1000000000E+03
         0.1063000000E+09     0.1000000000E+03
         0.1063000000E+09     0.1000000000E+03
         0.1064000000E+09     0.1000000000E+03
         0.1065000000E+09     0.1000000000E+03
         0.1066000000E+09     0.1000000000E+03
         0.1067000000E+09     0.1000000000E+03
         0.1068000000E+09     0.1000000000E+03
         0.1069000000E+09     0.1000000000E+03
         0.1069000000E+09     0.1000000000E+03
         0.1070000000E+09     0.1000000000E+03
         0.1071000000E+09     0.1000000000E+03
         0.1072000000E+09     0.1000000000E+03
         0.1073000000E+09     0.1000000000E+03
         0.1074000000E+09     0.1000000000E+03
         0.1075000000E+09     0.1000000000E+03
         0.1076000000E+09     0.1000000000E+03
         0.1077000000E+09     0.1000000000E+03
         0.1078000000E+09     0.1000000000E+03
         0.1079000000E+09     0.1000000000E+03
         0.1079000000E+09     0.1000000000E+03
         0.1080000000E+09     0.1000000000E+03
         0.1081000000E+09     0.1000000000E+03
         0.1082000000E+09     0.1000000000E+03
         0.1083000000E+09     0.1000000000E+03
         0.1084000000E+09     0.1000000000E+03
         0.1085000000E+09     0.1000000000E+03
         0.1085000000E+09     0.1000000000E+03
         0.1086000000E+09     0.1000000000E+03
         0.1087000000E+09     0.1000000000E+03
         0.1088000000E+09     0.1000000000E+03
         0.1089000000E+09     0.1000000000E+03
         0.1090000000E+09     0.1000000000E+03
         0.1091000000E+09     0.1000000000E+03
         0.1091000000E+09     0.1000000000E+03
         0.1092000000E+09     0.1000000000E+03
         0.1093000000E+09     0.1000000000E+03
         0.1094000000E+09     0.1000000000E+03
         0.1095000000E+09     0.1000000000E+03
         0.1096000000E+09     0.1000000000E+03
         0.1097000000E+09     0.1000000000E+03
         0.1098000000E+09     0.1000000000E+03
         0.1099000000E+09     0.1000000000E+03
         0.1100000000E+09     0.1000000000E+03
         0.1101000000E+09     0.1000000000E+03
         0.1101000000E+09     0.1000000000E+03
         0.1102000000E+09     0.1000000000E+03
         0.1103000000E+09     0.1000000000E+03
         0.1104000000E+09     0.1000000000E+03
         0.1105000000E+09     0.1000000000E+03
         0.1106000000E+09     0.1000000000E+03
         0.1107000000E+09     0.1000000000E+03
         0.1107000000E+09     0.1000000000E+03
         0.1108000000E+09     0.1000000000E+03
         0.1109000000E+09     0.1000000000E+03
         0.1110000000E+09     0.1000000000E+03
         0.1111000000E+09     0.1000000000E+03
         0.1112000000E+09     0.1000000000E+03
         0.1113000000E+09     0.1000000000E+03
         0.1113000000E+09     0.1000000000E+03
         0.1114000000E+09     0.1000000000E+03
         0.1115000000E+09     0.1000000000E+03
         0.1116000000E+09     0.1000000000E+03
         0.1117000000E+09     0.1000000000E+03
         0.1118000000E+09     0.1000000000E+03
         0.1119000000E+09     0.1000000000E+03
         0.1120000000E+09     0.1000000000E+03
         0.1121000000E+09     0.1000000000E+03
         0.1122000000E+09     0.1000000000E+03
         0.1123000000E+09     0.1000000000E+03
         0.1123000000E+09     0.1000000000E+03
         0.1124000000E+09     0.1000000000E+03
         0.1125000000E+09     0.1000000000E+03
         0.1126000000E+09     0.1000000000E+03
         0.1127000000E+09     0.1000000000E+03
         0.1128000000E+09     0.1000000000E+03
         0.1129000000E+09     0.1000000000E+03
         0.1129000000E+09     0.1000000000E+03
         0.1130000000E+09     0.1000000000E+03
         0.1131000000E+09     0.1000000000E+03
         0.1132000000E+09     0.1000000000E+03
         0.1133000000E+09     0.1000000000E+03
         0.1134000000E+09     0.1000000000E+03
         0.1135000000E+09     0.1000000000E+03
         0.1135000000E+09     0.1000000000E+03
         0.1136000000E+09     0.1000000000E+03
         0.1137000000E+09     0.1000000000E+03
         0.1138000000E+09     0.1000000000E+03
         0.1139000000E+09     0.1000000000E+03
         0.1140000000E+09     0.1000000000E+03
         0.1141000000E+09     0.1000000000E+03
         0.1142000000E+09     0.1000000000E+03
         0.1143000000E+09     0.1000000000E+03
         0.1144000000E+09     0.1000000000E+03
         0.1145000000E+09     0.1000000000E+03
         0.1145000000E+09     0.1000000000E+03
         0.1146000000E+09     0.1000000000E+03
         0.1147000000E+09     0.1000000000E+03
         0.1148000000E+09     0.1000000000E+03
         0.1149000000E+09     0.1000000000E+03
         0.1150000000E+09     0.1000000000E+03
         0.1151000000E+09     0.1000000000E+03
         0.1151000000E+09     0.1000000000E+03
         0.1152000000E+09     0.1000000000E+03
         0.1153000000E+09     0.1000000000E+03
         0.1154000000E+09     0.1000000000E+03
         0.1155000000E+09     0.1000000000E+03
         0.1156000000E+09     0.1000000000E+03
         0.1157000000E+09     0.1000000000E+03
         0.1157000000E+09     0.1000000000E+03
         0.1158000000E+09     0.1000000000E+03
         0.1159000000E+09     0.1000000000E+03
         0.1160000000E+09     0.1000000000E+03
         0.1161000000E+09     0.1000000000E+03
         0.1162000000E+09     0.1000000000E+03
         0.1163000000E+09     0.1000000000E+03
         0.1164000000E+09     0.1000000000E+03
         0.1165000000E+09     0.1000000000E+03
         0.1166000000E+09     0.1000000000E+03
         0.1167000000E+09     0.1000000000E+03
         0.1167000000E+09     0.1000000000E+03
         0.1168000000E+09     0.1000000000E+03
         0.1169000000E+09     0.1000000000E+03
         0.1170000000E+09     0.1000000000E+03
         0.1171000000E+09     0.1000000000E+03
         0.1172000000E+09     0.1000000000E+03
         0.1173000000E+09     0.1000000000E+03
         0.1173000000E+09     0.1000000000E+03
         0.1174000000E+09     0.1000000000E+03
         0.1175000000E+09     0.1000000000E+03
         0.1176000000E+09     0.1000000000E+03
         0.1177000000E+09     0.1000000000E+03
         0.1178000000E+09     0.1000000000E+03
         0.1179000000E+09     0.1000000000E+03
         0.1179000000E+09     0.1000000000E+03
         0.1180000000E+09     0.1000000000E+03
         0.1181000000E+09     0.1000000000E+03
         0.1182000000E+09     0.1000000000E+03
         0.1183000000E+09     0.1000000000E+03
         0.1184000000E+09     0.1000000000E+03
         0.1185000000E+09     0.1000000000E+03
         0.1186000000E+09     0.1000000000E+03
         0.1187000000E+09     0.1000000000E+03
         0.1188000000E+09     0.1000000000E+03
         0.1189000000E+09     0.1000000000E+03
         0.1189000000E+09     0.1000000000E+03
         0.1190000000E+09     0.1000000000E+03
         0.1191000000E+09     0.1000000000E+03
         0.1192000000E+09     0.1000000000E+03
         0.1193000000E+09     0.1000000000E+03
         0.1194000000E+09     0.1000000000E+03
         0.1195000000E+09     0.1000000000E+03
         0.1195000000E+09     0.1000000000E+03
         0.1196000000E+09     0.1000000000E+03
         0.1197000000E+09     0.1000000000E+03
         0.1198000000E+09     0.1000000000E+03
         0.1199000000E+09     0.1000000000E+03
         0.1200000000E+09     0.1000000000E+03
         0.1201000000E+09     0.1000000000E+03
         0.1201000000E+09     0.1000000000E+03
         0.1202000000E+09     0.1000000000E+03
         0.1203000000E+09     0.1000000000E+03
         0.1204000000E+09     0.1000000000E+03
         0.1205000000E+09     0.1000000000E+03
         0.1206000000E+09     0.1000000000E+03
         0.1207000000E+09     0.1000000000E+03
         0.1208000000E+09     0.1000000000E+03
         0.1209000000E+09     0.1000000000E+03
         0.1210000000E+09     0.1000000000E+03
         0.1211000000E+09     0.1000000000E+03
         0.1211000000E+09     0.1000000000E+03
         0.1212000000E+09     0.1000000000E+03
         0.1213000000E+09     0.1000000000E+03
         0.1214000000E+09     0.1000000000E+03
         0.1215000000E+09     0.1000000000E+03
         0.1216000000E+09     0.1000000000E+03
         0.1217000000E+09     0.1000000000E+03
         0.1217000000E+09     0.1000000000E+03
         0.1218000000E+09     0.1000000000E+03
         0.1219000000E+09     0.1000000000E+03
         0.1220000000E+09     0.1000000000E+03
         0.1221000000E+09     0.1000000000E+03
         0.1222000000E+09     0.1000000000E+03
         0.1223000000E+09     0.1000000000E+03
         0.1223000000E+09     0.1000000000E+03
         0.1224000000E+09     0.1000000000E+03
         0.1225000000E+09     0.1000000000E+03
         0.1226000000E+09     0.1000000000E+03
         0.1227000000E+09     0.1000000000E+03
         0.1228000000E+09     0.1000000000E+03
         0.1229000000E+09     0.1000000000E+03
         0.1230000000E+09     0.1000000000E+03
         0.1231000000E+09     0.1000000000E+03
         0.1232000000E+09     0.1000000000E+03
         0.1233000000E+09     0.1000000000E+03
         0.1233000000E+09     0.1000000000E+03
         0.1234000000E+09     0.1000000000E+03
         0.1235000000E+09     0.1000000000E+03
         0.1236000000E+09     0.1000000000E+03
         0.1237000000E+09     0.1000000000E+03
         0.1238000000E+09     0.1000000000E+03
         0.1239000000E+09     0.1000000000E+03
         0.1239000000E+09     0.1000000000E+03
         0.1240000000E+09     0.1000000000E+03
         0.1241000000E+09     0.1000000000E+03
         0.1242000000E+09     0.1000000000E+03
         0.1243000000E+09     0.1000000000E+03
         0.1244000000E+09     0.1000000000E+03
         0.1245000000E+09     0.1000000000E+03
         0.1245000000E+09     0.1000000000E+03
         0.1246000000E+09     0.1000000000E+03
         0.1247000000E+09     0.1000000000E+03
         0.1248000000E+09     0.1000000000E+03
         0.1249000000E+09     0.1000000000E+03
         0.1250000000E+09     0.1000000000E+03
         0.1251000000E+09     0.1000000000E+03
         0.1252000000E+09     0.1000000000E+03
         0.1253000000E+09     0.1000000000E+03
         0.1254000000E+09     0.1000000000E+03
         0.1255000000E+09     0.1000000000E+03
         0.1255000000E+09     0.1000000000E+03
         0.1256000000E+09     0.1000000000E+03
         0.1257000000E+09     0.1000000000E+03
         0.1258000000E+09     0.1000000000E+03
         0.1259000000E+09     0.1000000000E+03
         0.1260000000E+09     0.1000000000E+03



            AREAL INFILTRATION RATE
 READING ON UNIT   19 WITH FORMAT: (10F4.0)            

            1           2           3           4           5           6           7           8           9          10
 ........................................................................................................................
   1   1.0000E-10  2.0000E-10   0.000       0.000       0.000       0.000       0.000       0.000       0.000       0.000    
   2   2.0000E-10  1.0000E-10  2.0000E-10   0.000       0.000      8.0000E-10  8.0000E-10  5.0000E-10   0.000       0.000    
   3    0.000      5.0000E-10  1.0000E-10  1.0000E-10  8.0000E-10  8.0000E-10  5.0000E-10  5.0000E-10   0.000       0.000    
   4   8.0000E-10  5.0000E-10  1.0000E-10  1.0000E-10  1.0000E-10  1.0000E-10  1.0000E-10  1.0000E-10  2.0000E-10   0.000    
   5   8.0000E-10  5.0000E-10  1.0000E-10  1.0000E-10  1.0000E-10  1.0000E-10  1.0000E-10  1.0000E-10  1.0000E-10  1.0000E-10
   6   8.0000E-10  5.0000E-10  5.0000E-10  2.0000E-10  2.0000E-10  1.0000E-10  1.0000E-10  1.0000E-10  1.0000E-10  5.0000E-10
   7   8.0000E-10  5.0000E-10  5.0000E-10  2.0000E-10  2.0000E-10  1.0000E-10  1.0000E-10  2.0000E-10  2.0000E-10   0.000    
   8    0.000      5.0000E-10  5.0000E-10  2.0000E-10  2.0000E-10  1.0000E-10  1.0000E-10  2.0000E-10  5.0000E-10   0.000    
   9    0.000      5.0000E-10  5.0000E-10  2.0000E-10  2.0000E-10  1.0000E-10  1.0000E-10  2.0000E-10  5.0000E-10   0.000    
  10    0.000      5.0000E-10  5.0000E-10  2.0000E-10  2.0000E-10  1.0000E-10  1.0000E-10  2.0000E-10  5.0000E-10  8.0000E-10
  11    0.000      1.0000E-10  1.0000E-10  1.0000E-10  1.0000E-10  1.0000E-10  1.0000E-10  2.0000E-10  5.0000E-10   0.000    
  12   1.0000E-10  1.0000E-10  1.0000E-10  1.0000E-10  1.0000E-10  1.0000E-10  1.0000E-10  1.0000E-10  2.0000E-10   0.000    
  13   1.0000E-10  1.0000E-10  2.0000E-10  2.0000E-10  2.0000E-10  2.0000E-10  2.0000E-10  1.0000E-10  1.0000E-10   0.000    
  14    0.000      2.0000E-10  5.0000E-10  5.0000E-10  5.0000E-10  5.0000E-10  5.0000E-10  2.0000E-10  1.0000E-10   0.000    
  15    0.000       0.000      8.0000E-10  8.0000E-10  8.0000E-10  8.0000E-10   0.000       0.000       0.000       0.000    

                  ET RATE =  1.000000E-08

      ET EXTINCTION DEPTH =  0.500000    

 EXTINCTION WATER CONTENT =  0.200000    

EXTINCTION WATER CONTENT FOR CELL AT ROW     1, COLUMN     1 IS LESS THAN RESIDUAL WATER CONTENT-- SETTING EXTINCTION WATER CONTENT EQUAL TO RESIDUAL WATER CONTENT

EXTINCTION WATER CONTENT FOR CELL AT ROW     1, COLUMN     2 IS LESS THAN RESIDUAL WATER CONTENT-- SETTING EXTINCTION WATER CONTENT EQUAL TO RESIDUAL WATER CONTENT

EXTINCTION WATER CONTENT FOR CELL AT ROW     2, COLUMN     1 IS LESS THAN RESIDUAL WATER CONTENT-- SETTING EXTINCTION WATER CONTENT EQUAL TO RESIDUAL WATER CONTENT

EXTINCTION WATER CONTENT FOR CELL AT ROW     2, COLUMN     2 IS LESS THAN RESIDUAL WATER CONTENT-- SETTING EXTINCTION WATER CONTENT EQUAL TO RESIDUAL WATER CONTENT

EXTINCTION WATER CONTENT FOR CELL AT ROW     2, COLUMN     3 IS LESS THAN RESIDUAL WATER CONTENT-- SETTING EXTINCTION WATER CONTENT EQUAL TO RESIDUAL WATER CONTENT

EXTINCTION WATER CONTENT FOR CELL AT ROW     2, COLUMN     6 IS LESS THAN RESIDUAL WATER CONTENT-- SETTING EXTINCTION WATER CONTENT EQUAL TO RESIDUAL WATER CONTENT

EXTINCTION WATER CONTENT FOR CELL AT ROW     2, COLUMN     7 IS LESS THAN RESIDUAL WATER CONTENT-- SETTING EXTINCTION WATER CONTENT EQUAL TO RESIDUAL WATER CONTENT

EXTINCTION WATER CONTENT FOR CELL AT ROW     2, COLUMN     8 IS LESS THAN RESIDUAL WATER CONTENT-- SETTING EXTINCTION WATER CONTENT EQUAL TO RESIDUAL WATER CONTENT

EXTINCTION WATER CONTENT FOR CELL AT ROW     3, COLUMN     2 IS LESS THAN RESIDUAL WATER CONTENT-- SETTING EXTINCTION WATER CONTENT EQUAL TO RESIDUAL WATER CONTENT

EXTINCTION WATER CONTENT FOR CELL AT ROW     3, COLUMN     3 IS LESS THAN RESIDUAL WATER CONTENT-- SETTING EXTINCTION WATER CONTENT EQUAL TO RESIDUAL WATER CONTENT

EXTINCTION WATER CONTENT FOR CELL AT ROW     3, COLUMN     4 IS LESS THAN RESIDUAL WATER CONTENT-- SETTING EXTINCTION WATER CONTENT EQUAL TO RESIDUAL WATER CONTENT

EXTINCTION WATER CONTENT FOR CELL AT ROW     3, COLUMN     5 IS LESS THAN RESIDUAL WATER CONTENT-- SETTING EXTINCTION WATER CONTENT EQUAL TO RESIDUAL WATER CONTENT

EXTINCTION WATER CONTENT FOR CELL AT ROW     3, COLUMN     6 IS LESS THAN RESIDUAL WATER CONTENT-- SETTING EXTINCTION WATER CONTENT EQUAL TO RESIDUAL WATER CONTENT

EXTINCTION WATER CONTENT FOR CELL AT ROW     3, COLUMN     7 IS LESS THAN RESIDUAL WATER CONTENT-- SETTING EXTINCTION WATER CONTENT EQUAL TO RESIDUAL WATER CONTENT

EXTINCTION WATER CONTENT FOR CELL AT ROW     3, COLUMN     8 IS LESS THAN RESIDUAL WATER CONTENT-- SETTING EXTINCTION WATER CONTENT EQUAL TO RESIDUAL WATER CONTENT

EXTINCTION WATER CONTENT FOR CELL AT ROW     4, COLUMN     1 IS LESS THAN RESIDUAL WATER CONTENT-- SETTING EXTINCTION WATER CONTENT EQUAL TO RESIDUAL WATER CONTENT

EXTINCTION WATER CONTENT FOR CELL AT ROW     4, COLUMN     2 IS LESS THAN RESIDUAL WATER CONTENT-- SETTING EXTINCTION WATER CONTENT EQUAL TO RESIDUAL WATER CONTENT

EXTINCTION WATER CONTENT FOR CELL AT ROW     4, COLUMN     3 IS LESS THAN RESIDUAL WATER CONTENT-- SETTING EXTINCTION WATER CONTENT EQUAL TO RESIDUAL WATER CONTENT

EXTINCTION WATER CONTENT FOR CELL AT ROW     4, COLUMN     4 IS LESS THAN RESIDUAL WATER CONTENT-- SETTING EXTINCTION WATER CONTENT EQUAL TO RESIDUAL WATER CONTENT

EXTINCTION WATER CONTENT FOR CELL AT ROW     4, COLUMN     5 IS LESS THAN RESIDUAL WATER CONTENT-- SETTING EXTINCTION WATER CONTENT EQUAL TO RESIDUAL WATER CONTENT

EXTINCTION WATER CONTENT FOR CELL AT ROW     4, COLUMN     6 IS LESS THAN RESIDUAL WATER CONTENT-- SETTING EXTINCTION WATER CONTENT EQUAL TO RESIDUAL WATER CONTENT

EXTINCTION WATER CONTENT FOR CELL AT ROW     4, COLUMN     7 IS LESS THAN RESIDUAL WATER CONTENT-- SETTING EXTINCTION WATER CONTENT EQUAL TO RESIDUAL WATER CONTENT

EXTINCTION WATER CONTENT FOR CELL AT ROW     4, COLUMN     8 IS LESS THAN RESIDUAL WATER CONTENT-- SETTING EXTINCTION WATER CONTENT EQUAL TO RESIDUAL WATER CONTENT

EXTINCTION WATER CONTENT FOR CELL AT ROW     4, COLUMN     9 IS LESS THAN RESIDUAL WATER CONTENT-- SETTING EXTINCTION WATER CONTENT EQUAL TO RESIDUAL WATER CONTENT

EXTINCTION WATER CONTENT FOR CELL AT ROW     5, COLUMN     1 IS LESS THAN RESIDUAL WATER CONTENT-- SETTING EXTINCTION WATER CONTENT EQUAL TO RESIDUAL WATER CONTENT

EXTINCTION WATER CONTENT FOR CELL AT ROW     5, COLUMN     2 IS LESS THAN RESIDUAL WATER CONTENT-- SETTING EXTINCTION WATER CONTENT EQUAL TO RESIDUAL WATER CONTENT

EXTINCTION WATER CONTENT FOR CELL AT ROW     5, COLUMN     3 IS LESS THAN RESIDUAL WATER CONTENT-- SETTING EXTINCTION WATER CONTENT EQUAL TO RESIDUAL WATER CONTENT

EXTINCTION WATER CONTENT FOR CELL AT ROW     5, COLUMN     4 IS LESS THAN RESIDUAL WATER CONTENT-- SETTING EXTINCTION WATER CONTENT EQUAL TO RESIDUAL WATER CONTENT

EXTINCTION WATER CONTENT FOR CELL AT ROW     5, COLUMN     5 IS LESS THAN RESIDUAL WATER CONTENT-- SETTING EXTINCTION WATER CONTENT EQUAL TO RESIDUAL WATER CONTENT

EXTINCTION WATER CONTENT FOR CELL AT ROW     5, COLUMN     6 IS LESS THAN RESIDUAL WATER CONTENT-- SETTING EXTINCTION WATER CONTENT EQUAL TO RESIDUAL WATER CONTENT

EXTINCTION WATER CONTENT FOR CELL AT ROW     5, COLUMN     7 IS LESS THAN RESIDUAL WATER CONTENT-- SETTING EXTINCTION WATER CONTENT EQUAL TO RESIDUAL WATER CONTENT

EXTINCTION WATER CONTENT FOR CELL AT ROW     5, COLUMN     8 IS LESS THAN RESIDUAL WATER CONTENT-- SETTING EXTINCTION WATER CONTENT EQUAL TO RESIDUAL WATER CONTENT

EXTINCTION WATER CONTENT FOR CELL AT ROW     5, COLUMN     9 IS LESS THAN RESIDUAL WATER CONTENT-- SETTING EXTINCTION WATER CONTENT EQUAL TO RESIDUAL WATER CONTENT

EXTINCTION WATER CONTENT FOR CELL AT ROW     5, COLUMN    10 IS LESS THAN RESIDUAL WATER CONTENT-- SETTING EXTINCTION WATER CONTENT EQUAL TO RESIDUAL WATER CONTENT

EXTINCTION WATER CONTENT FOR CELL AT ROW     6, COLUMN     1 IS LESS THAN RESIDUAL WATER CONTENT-- SETTING EXTINCTION WATER CONTENT EQUAL TO RESIDUAL WATER CONTENT

EXTINCTION WATER CONTENT FOR CELL AT ROW     6, COLUMN     2 IS LESS THAN RESIDUAL WATER CONTENT-- SETTING EXTINCTION WATER CONTENT EQUAL TO RESIDUAL WATER CONTENT

EXTINCTION WATER CONTENT FOR CELL AT ROW     6, COLUMN     3 IS LESS THAN RESIDUAL WATER CONTENT-- SETTING EXTINCTION WATER CONTENT EQUAL TO RESIDUAL WATER CONTENT

EXTINCTION WATER CONTENT FOR CELL AT ROW     6, COLUMN     4 IS LESS THAN RESIDUAL WATER CONTENT-- SETTING EXTINCTION WATER CONTENT EQUAL TO RESIDUAL WATER CONTENT

EXTINCTION WATER CONTENT FOR CELL AT ROW     6, COLUMN     5 IS LESS THAN RESIDUAL WATER CONTENT-- SETTING EXTINCTION WATER CONTENT EQUAL TO RESIDUAL WATER CONTENT

EXTINCTION WATER CONTENT FOR CELL AT ROW     6, COLUMN     6 IS LESS THAN RESIDUAL WATER CONTENT-- SETTING EXTINCTION WATER CONTENT EQUAL TO RESIDUAL WATER CONTENT

EXTINCTION WATER CONTENT FOR CELL AT ROW     6, COLUMN     7 IS LESS THAN RESIDUAL WATER CONTENT-- SETTING EXTINCTION WATER CONTENT EQUAL TO RESIDUAL WATER CONTENT

EXTINCTION WATER CONTENT FOR CELL AT ROW     6, COLUMN     8 IS LESS THAN RESIDUAL WATER CONTENT-- SETTING EXTINCTION WATER CONTENT EQUAL TO RESIDUAL WATER CONTENT

EXTINCTION WATER CONTENT FOR CELL AT ROW     6, COLUMN     9 IS LESS THAN RESIDUAL WATER CONTENT-- SETTING EXTINCTION WATER CONTENT EQUAL TO RESIDUAL WATER CONTENT

EXTINCTION WATER CONTENT FOR CELL AT ROW     6, COLUMN    10 IS LESS THAN RESIDUAL WATER CONTENT-- SETTING EXTINCTION WATER CONTENT EQUAL TO RESIDUAL WATER CONTENT

EXTINCTION WATER CONTENT FOR CELL AT ROW     7, COLUMN     1 IS LESS THAN RESIDUAL WATER CONTENT-- SETTING EXTINCTION WATER CONTENT EQUAL TO RESIDUAL WATER CONTENT

EXTINCTION WATER CONTENT FOR CELL AT ROW     7, COLUMN     2 IS LESS THAN RESIDUAL WATER CONTENT-- SETTING EXTINCTION WATER CONTENT EQUAL TO RESIDUAL WATER CONTENT

EXTINCTION WATER CONTENT FOR CELL AT ROW     7, COLUMN     3 IS LESS THAN RESIDUAL WATER CONTENT-- SETTING EXTINCTION WATER CONTENT EQUAL TO RESIDUAL WATER CONTENT

EXTINCTION WATER CONTENT FOR CELL AT ROW     7, COLUMN     4 IS LESS THAN RESIDUAL WATER CONTENT-- SETTING EXTINCTION WATER CONTENT EQUAL TO RESIDUAL WATER CONTENT

EXTINCTION WATER CONTENT FOR CELL AT ROW     7, COLUMN     5 IS LESS THAN RESIDUAL WATER CONTENT-- SETTING EXTINCTION WATER CONTENT EQUAL TO RESIDUAL WATER CONTENT

EXTINCTION WATER CONTENT FOR CELL AT ROW     7, COLUMN     6 IS LESS THAN RESIDUAL WATER CONTENT-- SETTING EXTINCTION WATER CONTENT EQUAL TO RESIDUAL WATER CONTENT

EXTINCTION WATER CONTENT FOR CELL AT ROW     7, COLUMN     7 IS LESS THAN RESIDUAL WATER CONTENT-- SETTING EXTINCTION WATER CONTENT EQUAL TO RESIDUAL WATER CONTENT

EXTINCTION WATER CONTENT FOR CELL AT ROW     7, COLUMN     8 IS LESS THAN RESIDUAL WATER CONTENT-- SETTING EXTINCTION WATER CONTENT EQUAL TO RESIDUAL WATER CONTENT

EXTINCTION WATER CONTENT FOR CELL AT ROW     7, COLUMN     9 IS LESS THAN RESIDUAL WATER CONTENT-- SETTING EXTINCTION WATER CONTENT EQUAL TO RESIDUAL WATER CONTENT

EXTINCTION WATER CONTENT FOR CELL AT ROW     8, COLUMN     2 IS LESS THAN RESIDUAL WATER CONTENT-- SETTING EXTINCTION WATER CONTENT EQUAL TO RESIDUAL WATER CONTENT

EXTINCTION WATER CONTENT FOR CELL AT ROW     8, COLUMN     3 IS LESS THAN RESIDUAL WATER CONTENT-- SETTING EXTINCTION WATER CONTENT EQUAL TO RESIDUAL WATER CONTENT

EXTINCTION WATER CONTENT FOR CELL AT ROW     8, COLUMN     4 IS LESS THAN RESIDUAL WATER CONTENT-- SETTING EXTINCTION WATER CONTENT EQUAL TO RESIDUAL WATER CONTENT

EXTINCTION WATER CONTENT FOR CELL AT ROW     8, COLUMN     5 IS LESS THAN RESIDUAL WATER CONTENT-- SETTING EXTINCTION WATER CONTENT EQUAL TO RESIDUAL WATER CONTENT

EXTINCTION WATER CONTENT FOR CELL AT ROW     8, COLUMN     6 IS LESS THAN RESIDUAL WATER CONTENT-- SETTING EXTINCTION WATER CONTENT EQUAL TO RESIDUAL WATER CONTENT

EXTINCTION WATER CONTENT FOR CELL AT ROW     8, COLUMN     7 IS LESS THAN RESIDUAL WATER CONTENT-- SETTING EXTINCTION WATER CONTENT EQUAL TO RESIDUAL WATER CONTENT

EXTINCTION WATER CONTENT FOR CELL AT ROW     8, COLUMN     8 IS LESS THAN RESIDUAL WATER CONTENT-- SETTING EXTINCTION WATER CONTENT EQUAL TO RESIDUAL WATER CONTENT

EXTINCTION WATER CONTENT FOR CELL AT ROW     8, COLUMN     9 IS LESS THAN RESIDUAL WATER CONTENT-- SETTING EXTINCTION WATER CONTENT EQUAL TO RESIDUAL WATER CONTENT

EXTINCTION WATER CONTENT FOR CELL AT ROW     9, COLUMN     2 IS LESS THAN RESIDUAL WATER CONTENT-- SETTING EXTINCTION WATER CONTENT EQUAL TO RESIDUAL WATER CONTENT

EXTINCTION WATER CONTENT FOR CELL AT ROW     9, COLUMN     3 IS LESS THAN RESIDUAL WATER CONTENT-- SETTING EXTINCTION WATER CONTENT EQUAL TO RESIDUAL WATER CONTENT

EXTINCTION WATER CONTENT FOR CELL AT ROW     9, COLUMN     4 IS LESS THAN RESIDUAL WATER CONTENT-- SETTING EXTINCTION WATER CONTENT EQUAL TO RESIDUAL WATER CONTENT

EXTINCTION WATER CONTENT FOR CELL AT ROW     9, COLUMN     5 IS LESS THAN RESIDUAL WATER CONTENT-- SETTING EXTINCTION WATER CONTENT EQUAL TO RESIDUAL WATER CONTENT

EXTINCTION WATER CONTENT FOR CELL AT ROW     9, COLUMN     6 IS LESS THAN RESIDUAL WATER CONTENT-- SETTING EXTINCTION WATER CONTENT EQUAL TO RESIDUAL WATER CONTENT

EXTINCTION WATER CONTENT FOR CELL AT ROW     9, COLUMN     7 IS LESS THAN RESIDUAL WATER CONTENT-- SETTING EXTINCTION WATER CONTENT EQUAL TO RESIDUAL WATER CONTENT

EXTINCTION WATER CONTENT FOR CELL AT ROW     9, COLUMN     8 IS LESS THAN RESIDUAL WATER CONTENT-- SETTING EXTINCTION WATER CONTENT EQUAL TO RESIDUAL WATER CONTENT

EXTINCTION WATER CONTENT FOR CELL AT ROW     9, COLUMN     9 IS LESS THAN RESIDUAL WATER CONTENT-- SETTING EXTINCTION WATER CONTENT EQUAL TO RESIDUAL WATER CONTENT

EXTINCTION WATER CONTENT FOR CELL AT ROW    10, COLUMN     2 IS LESS THAN RESIDUAL WATER CONTENT-- SETTING EXTINCTION WATER CONTENT EQUAL TO RESIDUAL WATER CONTENT

EXTINCTION WATER CONTENT FOR CELL AT ROW    10, COLUMN     3 IS LESS THAN RESIDUAL WATER CONTENT-- SETTING EXTINCTION WATER CONTENT EQUAL TO RESIDUAL WATER CONTENT

EXTINCTION WATER CONTENT FOR CELL AT ROW    10, COLUMN     4 IS LESS THAN RESIDUAL WATER CONTENT-- SETTING EXTINCTION WATER CONTENT EQUAL TO RESIDUAL WATER CONTENT

EXTINCTION WATER CONTENT FOR CELL AT ROW    10, COLUMN     5 IS LESS THAN RESIDUAL WATER CONTENT-- SETTING EXTINCTION WATER CONTENT EQUAL TO RESIDUAL WATER CONTENT

EXTINCTION WATER CONTENT FOR CELL AT ROW    10, COLUMN     6 IS LESS THAN RESIDUAL WATER CONTENT-- SETTING EXTINCTION WATER CONTENT EQUAL TO RESIDUAL WATER CONTENT

EXTINCTION WATER CONTENT FOR CELL AT ROW    10, COLUMN     7 IS LESS THAN RESIDUAL WATER CONTENT-- SETTING EXTINCTION WATER CONTENT EQUAL TO RESIDUAL WATER CONTENT

EXTINCTION WATER CONTENT FOR CELL AT ROW    10, COLUMN     8 IS LESS THAN RESIDUAL WATER CONTENT-- SETTING EXTINCTION WATER CONTENT EQUAL TO RESIDUAL WATER CONTENT

EXTINCTION WATER CONTENT FOR CELL AT ROW    10, COLUMN     9 IS LESS THAN RESIDUAL WATER CONTENT-- SETTING EXTINCTION WATER CONTENT EQUAL TO RESIDUAL WATER CONTENT

EXTINCTION WATER CONTENT FOR CELL AT ROW    10, COLUMN    10 IS LESS THAN RESIDUAL WATER CONTENT-- SETTING EXTINCTION WATER CONTENT EQUAL TO RESIDUAL WATER CONTENT

EXTINCTION WATER CONTENT FOR CELL AT ROW    11, COLUMN     2 IS LESS THAN RESIDUAL WATER CONTENT-- SETTING EXTINCTION WATER CONTENT EQUAL TO RESIDUAL WATER CONTENT

EXTINCTION WATER CONTENT FOR CELL AT ROW    11, COLUMN     3 IS LESS THAN RESIDUAL WATER CONTENT-- SETTING EXTINCTION WATER CONTENT EQUAL TO RESIDUAL WATER CONTENT

EXTINCTION WATER CONTENT FOR CELL AT ROW    11, COLUMN     4 IS LESS THAN RESIDUAL WATER CONTENT-- SETTING EXTINCTION WATER CONTENT EQUAL TO RESIDUAL WATER CONTENT

EXTINCTION WATER CONTENT FOR CELL AT ROW    11, COLUMN     5 IS LESS THAN RESIDUAL WATER CONTENT-- SETTING EXTINCTION WATER CONTENT EQUAL TO RESIDUAL WATER CONTENT

EXTINCTION WATER CONTENT FOR CELL AT ROW    11, COLUMN     6 IS LESS THAN RESIDUAL WATER CONTENT-- SETTING EXTINCTION WATER CONTENT EQUAL TO RESIDUAL WATER CONTENT

EXTINCTION WATER CONTENT FOR CELL AT ROW    11, COLUMN     7 IS LESS THAN RESIDUAL WATER CONTENT-- SETTING EXTINCTION WATER CONTENT EQUAL TO RESIDUAL WATER CONTENT

EXTINCTION WATER CONTENT FOR CELL AT ROW    11, COLUMN     8 IS LESS THAN RESIDUAL WATER CONTENT-- SETTING EXTINCTION WATER CONTENT EQUAL TO RESIDUAL WATER CONTENT

EXTINCTION WATER CONTENT FOR CELL AT ROW    11, COLUMN     9 IS LESS THAN RESIDUAL WATER CONTENT-- SETTING EXTINCTION WATER CONTENT EQUAL TO RESIDUAL WATER CONTENT

EXTINCTION WATER CONTENT FOR CELL AT ROW    12, COLUMN     1 IS LESS THAN RESIDUAL WATER CONTENT-- SETTING EXTINCTION WATER CONTENT EQUAL TO RESIDUAL WATER CONTENT

EXTINCTION WATER CONTENT FOR CELL AT ROW    12, COLUMN     2 IS LESS THAN RESIDUAL WATER CONTENT-- SETTING EXTINCTION WATER CONTENT EQUAL TO RESIDUAL WATER CONTENT

EXTINCTION WATER CONTENT FOR CELL AT ROW    12, COLUMN     3 IS LESS THAN RESIDUAL WATER CONTENT-- SETTING EXTINCTION WATER CONTENT EQUAL TO RESIDUAL WATER CONTENT

EXTINCTION WATER CONTENT FOR CELL AT ROW    12, COLUMN     4 IS LESS THAN RESIDUAL WATER CONTENT-- SETTING EXTINCTION WATER CONTENT EQUAL TO RESIDUAL WATER CONTENT

EXTINCTION WATER CONTENT FOR CELL AT ROW    12, COLUMN     5 IS LESS THAN RESIDUAL WATER CONTENT-- SETTING EXTINCTION WATER CONTENT EQUAL TO RESIDUAL WATER CONTENT

EXTINCTION WATER CONTENT FOR CELL AT ROW    12, COLUMN     6 IS LESS THAN RESIDUAL WATER CONTENT-- SETTING EXTINCTION WATER CONTENT EQUAL TO RESIDUAL WATER CONTENT

EXTINCTION WATER CONTENT FOR CELL AT ROW    12, COLUMN     7 IS LESS THAN RESIDUAL WATER CONTENT-- SETTING EXTINCTION WATER CONTENT EQUAL TO RESIDUAL WATER CONTENT

EXTINCTION WATER CONTENT FOR CELL AT ROW    12, COLUMN     8 IS LESS THAN RESIDUAL WATER CONTENT-- SETTING EXTINCTION WATER CONTENT EQUAL TO RESIDUAL WATER CONTENT

EXTINCTION WATER CONTENT FOR CELL AT ROW    12, COLUMN     9 IS LESS THAN RESIDUAL WATER CONTENT-- SETTING EXTINCTION WATER CONTENT EQUAL TO RESIDUAL WATER CONTENT

EXTINCTION WATER CONTENT FOR CELL AT ROW    13, COLUMN     1 IS LESS THAN RESIDUAL WATER CONTENT-- SETTING EXTINCTION WATER CONTENT EQUAL TO RESIDUAL WATER CONTENT

EXTINCTION WATER CONTENT FOR CELL AT ROW    13, COLUMN     2 IS LESS THAN RESIDUAL WATER CONTENT-- SETTING EXTINCTION WATER CONTENT EQUAL TO RESIDUAL WATER CONTENT

EXTINCTION WATER CONTENT FOR CELL AT ROW    13, COLUMN     3 IS LESS THAN RESIDUAL WATER CONTENT-- SETTING EXTINCTION WATER CONTENT EQUAL TO RESIDUAL WATER CONTENT

EXTINCTION WATER CONTENT FOR CELL AT ROW    13, COLUMN     4 IS LESS THAN RESIDUAL WATER CONTENT-- SETTING EXTINCTION WATER CONTENT EQUAL TO RESIDUAL WATER CONTENT

EXTINCTION WATER CONTENT FOR CELL AT ROW    13, COLUMN     5 IS LESS THAN RESIDUAL WATER CONTENT-- SETTING EXTINCTION WATER CONTENT EQUAL TO RESIDUAL WATER CONTENT

EXTINCTION WATER CONTENT FOR CELL AT ROW    13, COLUMN     6 IS LESS THAN RESIDUAL WATER CONTENT-- SETTING EXTINCTION WATER CONTENT EQUAL TO RESIDUAL WATER CONTENT

EXTINCTION WATER CONTENT FOR CELL AT ROW    13, COLUMN     7 IS LESS THAN RESIDUAL WATER CONTENT-- SETTING EXTINCTION WATER CONTENT EQUAL TO RESIDUAL WATER CONTENT

EXTINCTION WATER CONTENT FOR CELL AT ROW    13, COLUMN     8 IS LESS THAN RESIDUAL WATER CONTENT-- SETTING EXTINCTION WATER CONTENT EQUAL TO RESIDUAL WATER CONTENT

EXTINCTION WATER CONTENT FOR CELL AT ROW    13, COLUMN     9 IS LESS THAN RESIDUAL WATER CONTENT-- SETTING EXTINCTION WATER CONTENT EQUAL TO RESIDUAL WATER CONTENT

EXTINCTION WATER CONTENT FOR CELL AT ROW    14, COLUMN     2 IS LESS THAN RESIDUAL WATER CONTENT-- SETTING EXTINCTION WATER CONTENT EQUAL TO RESIDUAL WATER CONTENT

EXTINCTION WATER CONTENT FOR CELL AT ROW    14, COLUMN     3 IS LESS THAN RESIDUAL WATER CONTENT-- SETTING EXTINCTION WATER CONTENT EQUAL TO RESIDUAL WATER CONTENT

EXTINCTION WATER CONTENT FOR CELL AT ROW    14, COLUMN     4 IS LESS THAN RESIDUAL WATER CONTENT-- SETTING EXTINCTION WATER CONTENT EQUAL TO RESIDUAL WATER CONTENT

EXTINCTION WATER CONTENT FOR CELL AT ROW    14, COLUMN     5 IS LESS THAN RESIDUAL WATER CONTENT-- SETTING EXTINCTION WATER CONTENT EQUAL TO RESIDUAL WATER CONTENT

EXTINCTION WATER CONTENT FOR CELL AT ROW    14, COLUMN     6 IS LESS THAN RESIDUAL WATER CONTENT-- SETTING EXTINCTION WATER CONTENT EQUAL TO RESIDUAL WATER CONTENT

EXTINCTION WATER CONTENT FOR CELL AT ROW    14, COLUMN     7 IS LESS THAN RESIDUAL WATER CONTENT-- SETTING EXTINCTION WATER CONTENT EQUAL TO RESIDUAL WATER CONTENT

EXTINCTION WATER CONTENT FOR CELL AT ROW    14, COLUMN     8 IS LESS THAN RESIDUAL WATER CONTENT-- SETTING EXTINCTION WATER CONTENT EQUAL TO RESIDUAL WATER CONTENT

EXTINCTION WATER CONTENT FOR CELL AT ROW    14, COLUMN     9 IS LESS THAN RESIDUAL WATER CONTENT-- SETTING EXTINCTION WATER CONTENT EQUAL TO RESIDUAL WATER CONTENT

EXTINCTION WATER CONTENT FOR CELL AT ROW    15, COLUMN     3 IS LESS THAN RESIDUAL WATER CONTENT-- SETTING EXTINCTION WATER CONTENT EQUAL TO RESIDUAL WATER CONTENT

EXTINCTION WATER CONTENT FOR CELL AT ROW    15, COLUMN     4 IS LESS THAN RESIDUAL WATER CONTENT-- SETTING EXTINCTION WATER CONTENT EQUAL TO RESIDUAL WATER CONTENT

EXTINCTION WATER CONTENT FOR CELL AT ROW    15, COLUMN     5 IS LESS THAN RESIDUAL WATER CONTENT-- SETTING EXTINCTION WATER CONTENT EQUAL TO RESIDUAL WATER CONTENT

EXTINCTION WATER CONTENT FOR CELL AT ROW    15, COLUMN     6 IS LESS THAN RESIDUAL WATER CONTENT-- SETTING EXTINCTION WATER CONTENT EQUAL TO RESIDUAL WATER CONTENT

       AIR ENTRY PRESSURE =  -1.10000    

            ROOT PRESSURE =  -75.0000    

            ROOT ACTIVITY =   1.00000    
 # AG segment list

 PROCESSING SEGMENT LIST

 FINISHED READING SEGMENT LIST
 # AG well list

 PROCESSING WELL LIST

 LAYER   ROW   COL   MAX STRESS RATE         
 --------------------------------------------
      1      1      6      4      -100.0    
      2      1      6      5      -100.0    
      3      1      7      4      -100.0    
      4      1      7      5      -100.0    
      5      1      8      4      -100.0    
      6      1      8      5      -100.0    

 FINISHED READING WELL LIST

      6 WELLS

 PROCESSING AG STRESS PERIOD DATA
 # AG stress period

 READING AG STRESS PERIOD DATA

 READING IRRIGATION SEGMENT

 READING IRRIGATION WELL

 READING SUPPLEMENTAL WELL

 END PROCESSING AG STRESS PERIOD DATA OPTIONS
 
 SOLVING FOR HEAD 
                                                   Max.-Head-Change                         Max.-Flux-Residual
  Residual-Control   Outer-Iter.   Inner-Iter.     Column Row Layer    Maximum-Head-Change  Column Row Layer    Maximum-Flux-Residual          L2-NORM 
          0                 1           6             2    2     1      -0.3091902064E+02       3    3    1        -0.3387725593E+01      0.9438782865E+01
          0                 2           6             1    1     1      -0.3160283292E+02       1   13    1        -0.6317714402E+02      0.6341706057E+02
          0                 3           5             1    1     1      -0.1218344574E+01       1   13    1        -0.2090503639E+01      0.2852988538E+01
          0                 4           5             5   13     1      -0.3531913407E+00       5   13    1        -0.5902046470E+00      0.6060818052E+00
          0                 5           4             5   14     1       0.5787723920E-01       5   13    1         0.2547336429E-01      0.4765602283E-01
          0                 6           2             5   14     1      -0.2238284060E-02       5   12    1        -0.2373325674E-02      0.3894923016E-02
          0                 7           1             5   12     1       0.4405428811E-04       5   12    1         0.1191611464E-03      0.1657509654E-03

    ------------------------------------------------
       NWT REQUIRED            7 OUTER ITERATIONS 
       AND A TOTAL OF         29 INNER ITERATIONS.
    ------------------------------------------------

 OUTPUT CONTROL FOR STRESS PERIOD    1   TIME STEP    1
    PRINT BUDGET
    PRINT HEAD FOR ALL LAYERS
    SAVE BUDGET
    SAVE HEAD FOR ALL LAYERS
 UBDSV2 SAVING "   CONSTANT HEAD" ON UNIT 102 AT TIME STEP  1, STRESS PERIOD   1
 UBDSV1 SAVING "FLOW RIGHT FACE " ON UNIT 102 AT TIME STEP  1, STRESS PERIOD   1
 UBDSV1 SAVING "FLOW FRONT FACE " ON UNIT 102 AT TIME STEP  1, STRESS PERIOD   1

  HEAD DEP BOUNDS   PERIOD    1   STEP     1
 BOUNDARY      1   LAYER   1   ROW    13   COL     1   RATE   -0.286536    
 BOUNDARY      2   LAYER   1   ROW    14   COL     9   RATE    0.287755    



 STREAM LISTING     PERIOD      1   STEP        1

 LAYER ROW COL. STREAM  RCH.  FLOW INTO     FLOW TO   FLOW OUT OF   OVRLND.     DIRECT     STREAM       STREAM     STREAM     STREAM   STREAMBED  STREAMBED
                SEG.NO.  NO.  STRM. RCH.    AQUIFER    STRM. RCH.    RUNOFF     PRECIP       ET          HEAD       DEPTH      WIDTH   CONDCTNC.   GRADIENT

   1    1    1     1     1    1.8750E+00  6.5285E-02   1.8097E+00  0.000E+00  0.000E+00  0.000E+00  1.09358E+03  5.296E-01  4.110E+00  1.850E-02  1.177E+00
   1    2    2     1     2    1.8097E+00  1.0002E-01   1.7097E+00  0.000E+00  0.000E+00  0.000E+00  1.08858E+03  5.186E-01  4.061E+00  2.843E-02  1.173E+00
   1    3    3     1     3    1.7097E+00  8.4225E-02   1.6255E+00  0.000E+00  0.000E+00  0.000E+00  1.08292E+03  5.059E-01  4.004E+00  2.402E-02  1.169E+00
   1    3    4     1     4    1.6255E+00  7.6652E-02   1.5488E+00  0.000E+00  0.000E+00  0.000E+00  1.07790E+03  4.946E-01  3.952E+00  2.193E-02  1.165E+00
   1    4    5     2     1    0.0000E+00  0.0000E+00   0.0000E+00  0.000E+00  0.000E+00  0.000E+00  1.07193E+03  0.000E+00  1.200E+01  7.800E-02  1.000E+00
   1    5    6     2     2    0.0000E+00  0.0000E+00   0.0000E+00  0.000E+00  0.000E+00  0.000E+00  1.06651E+03  0.000E+00  1.200E+01  6.000E-02  1.000E+00
   1    6    6     2     3    0.0000E+00  0.0000E+00   0.0000E+00  0.000E+00  0.000E+00  0.000E+00  1.06179E+03  0.000E+00  1.200E+01  6.000E-02  1.000E+00
   1    7    6     2     4    0.0000E+00  0.0000E+00   0.0000E+00  0.000E+00  0.000E+00  0.000E+00  1.05708E+03  0.000E+00  1.200E+01  6.000E-02  1.000E+00
   1    8    6     2     5    0.0000E+00  0.0000E+00   0.0000E+00  0.000E+00  0.000E+00  0.000E+00  1.05236E+03  0.000E+00  1.200E+01  6.000E-02  1.000E+00
   1    3    5     3     1    1.5488E+00  2.8252E-01   1.2663E+00  0.000E+00  0.000E+00  0.000E+00  1.07555E+03  1.909E+00  9.636E+00  7.227E-02  1.955E+00
   1    3    6     3     2    1.2663E+00  2.4905E-01   1.0172E+00  0.000E+00  0.000E+00  0.000E+00  1.07264E+03  1.727E+00  8.909E+00  6.682E-02  1.864E+00
   1    3    7     3     3    1.0172E+00  1.9718E-01   8.2007E-01  0.000E+00  0.000E+00  0.000E+00  1.06987E+03  1.555E+00  8.218E+00  5.547E-02  1.777E+00
   1    4    8     3     4    8.2007E-01  2.2567E-01   5.9440E-01  0.000E+00  0.000E+00  0.000E+00  1.06682E+03  1.364E+00  7.455E+00  6.709E-02  1.682E+00
   1    5    8     3     5    5.9440E-01  1.5790E-01   4.3650E-01  0.000E+00  0.000E+00  0.000E+00  1.06362E+03  1.164E+00  6.655E+00  4.991E-02  1.582E+00
   1    6    8     3     6    4.3650E-01  5.5980E-02   3.8052E-01  0.000E+00  0.000E+00  0.000E+00  1.06158E+03  1.036E+00  6.145E+00  1.844E-02  1.518E+00
   1    5   10     4     1    1.0000E+01  9.0919E-02   9.9091E+00  0.000E+00  0.000E+00  0.000E+00  1.07836E+03  6.368E-01  1.000E+01  2.500E-02  1.212E+00
   1    5    9     4     2    9.9091E+00  1.8158E-01   9.7275E+00  0.000E+00  0.000E+00  0.000E+00  1.07154E+03  6.315E-01  1.000E+01  5.000E-02  1.211E+00
   1    6    8     4     3    9.7275E+00  1.2689E-01   9.6006E+00  0.000E+00  0.000E+00  0.000E+00  1.06381E+03  6.256E-01  1.000E+01  3.500E-02  1.209E+00
   1    6    8     5     1    9.9811E+00  2.2027E-01   9.7609E+00  0.000E+00  0.000E+00  0.000E+00  1.05867E+03  6.686E-01  1.501E+01  6.004E-02  1.223E+00
   1    7    7     5     2    9.7609E+00  2.7078E-01   9.4901E+00  0.000E+00  0.000E+00  0.000E+00  1.05416E+03  6.627E-01  1.479E+01  7.393E-02  1.221E+00
   1    8    7     5     3    9.4901E+00  1.8654E-01   9.3035E+00  0.000E+00  0.000E+00  0.000E+00  1.04991E+03  6.571E-01  1.457E+01  5.101E-02  1.219E+00
   1    8    6     5     4    9.3035E+00  1.3175E-01   9.1718E+00  0.000E+00  0.000E+00  0.000E+00  1.04690E+03  6.532E-01  1.443E+01  3.606E-02  1.218E+00
   1    9    6     6     1    9.1718E+00  2.1985E-01   8.9519E+00  0.000E+00  0.000E+00  0.000E+00  1.04339E+03  6.642E-01  1.200E+01  6.000E-02  1.221E+00
   1   10    7     6     2    8.9519E+00  2.1927E-01   8.7327E+00  0.000E+00  0.000E+00  0.000E+00  1.03884E+03  6.545E-01  1.200E+01  6.000E-02  1.218E+00
   1   11    7     6     3    8.7327E+00  2.1868E-01   8.5140E+00  0.000E+00  0.000E+00  0.000E+00  1.03428E+03  6.447E-01  1.200E+01  6.000E-02  1.215E+00
   1   12    7     6     4    8.5140E+00  2.1809E-01   8.2959E+00  0.000E+00  0.000E+00  0.000E+00  1.02973E+03  6.349E-01  1.200E+01  6.000E-02  1.212E+00
   1   13    7     6     5    8.2959E+00 -6.5708E-02   8.3616E+00  0.000E+00  0.000E+00  0.000E+00  1.02654E+03  6.314E-01  1.200E+01  2.400E-01 -9.126E-02
   1   14    9     7     1    1.5000E+02  1.3651E+00   1.4863E+02  0.000E+00  0.000E+00  0.000E+00  1.03987E+03  2.288E+00  5.529E+01  5.593E-01  8.136E-01
   1   13    8     7     2    1.4863E+02  1.9205E+00   1.4671E+02  0.000E+00  0.000E+00  0.000E+00  1.03478E+03  2.279E+00  5.526E+01  6.148E-01  1.041E+00
   1   13    7     7     3    1.4671E+02  1.6052E+00   1.4511E+02  0.000E+00  0.000E+00  0.000E+00  1.02969E+03  2.269E+00  5.521E+01  5.584E-01  9.582E-01
   1   13    6     8     1    1.5347E+02  9.5026E-01   1.5252E+02  0.000E+00  0.000E+00  0.000E+00  1.02471E+03  2.838E+00  4.115E+01  4.193E-01  7.554E-01
   1   13    5     8     2    1.5252E+02  2.1144E-01   1.5231E+02  0.000E+00  0.000E+00  0.000E+00  1.01846E+03  2.834E+00  4.109E+01  4.187E-01  1.683E-01
   1   13    4     8     3    1.5231E+02 -2.3074E+00   1.5462E+02  0.000E+00  0.000E+00  0.000E+00  1.01222E+03  2.841E+00  4.120E+01  4.198E+00 -1.832E-01
   1   13    3     8     4    1.5462E+02 -3.5750E+00   1.5819E+02  0.000E+00  0.000E+00  0.000E+00  1.00599E+03  2.861E+00  4.149E+01  4.228E+00 -2.819E-01
   1   13    2     8     5    1.5819E+02 -2.5597E+00   1.6075E+02  0.000E+00  0.000E+00  0.000E+00  9.99757E+02  2.882E+00  4.179E+01  4.259E+00 -2.003E-01
   1   13    1     8     6    1.6075E+02 -1.9726E+00   1.6272E+02  0.000E+00  0.000E+00  0.000E+00  9.94773E+02  2.898E+00  4.201E+01  2.569E+00 -2.560E-01
   1    8    6     9     1    0.0000E+00  0.0000E+00   0.0000E+00  0.000E+00  0.000E+00  0.000E+00  1.07875E+03  0.000E+00  4.000E+00  0.000E+00  1.000E+00
   1    8    5     9     2    0.0000E+00  0.0000E+00   0.0000E+00  0.000E+00  0.000E+00  0.000E+00  1.07825E+03  0.000E+00  4.000E+00  0.000E+00  1.000E+00



 UBDSV3 SAVING "           GW ET" ON UNIT  61 AT TIME STEP  1, STRESS PERIOD   1
 UBDSV3 SAVING "    UZF RECHARGE" ON UNIT  61 AT TIME STEP  1, STRESS PERIOD   1
 UBDSV3 SAVING " SURFACE LEAKAGE" ON UNIT  61 AT TIME STEP  1, STRESS PERIOD   1
 UBDSV3 SAVING "       HORT+DUNN" ON UNIT  61 AT TIME STEP  1, STRESS PERIOD   1
 UBDSV3 SAVING "  STORAGE CHANGE" ON UNIT  61 AT TIME STEP  1, STRESS PERIOD   1


UNSATURATED ZONE PACKAGE VOLUMETRIC BUDGET FOR  TIME STEP     1 STRESS PERIOD    1
  ------------------------------------------------------------------------------



     CUMULATIVE VOLUMES      L**3       RATES FOR THIS TIME STEP      L**3/T
     ------------------                 ------------------------

           IN:                                      IN:
           ---                                      ---
        INFILTRATION =       73224.0000          INFILTRATION =           0.8475

          OUT:                                     OUT:
          ----                                     ----
              UZF ET =       0.0000E+00                UZF ET =       0.0000E+00
        UZF RECHARGE =       73224.0000          UZF RECHARGE =           0.8475

            IN - OUT =       0.0000E+00              IN - OUT =       0.0000E+00

          STORAGE:                                 STORAGE:
          --------                                 --------
      STORAGE CHANGE =       0.0000E+00        STORAGE CHANGE =       0.0000E+00

 PERCENT DISCREPANCY IS DIFFERENCE BETWEEN IN-OUT MINUS CHANGE IN STORAGE
 DIVIDED BY THE AVERAGE OF IN AND OUT TIMES 100

 PERCENT DISCREPANCY =           0.00     PERCENT DISCREPANCY =           0.00






 

            AG WELLS      PERIOD    1   STEP   1
 AG WELL      1   LAYER   1   ROW     6   COL     4   RATE     0.00000    
 AG WELL      2   LAYER   1   ROW     6   COL     5   RATE     0.00000    
 AG WELL      3   LAYER   1   ROW     7   COL     4   RATE     0.00000    
 AG WELL      4   LAYER   1   ROW     7   COL     5   RATE     0.00000    
 AG WELL      5   LAYER   1   ROW     8   COL     4   RATE     0.00000    
 AG WELL      6   LAYER   1   ROW     8   COL     5   RATE     0.00000    
 
 

   DIVERSION SEGMENTS     PERIOD    1   STEP   1
 
 

        SW IRRIGATION     PERIOD    1   STEP   1
 
 

        GW IRRIGATION     PERIOD    1   STEP   1
 
1
  VOLUMETRIC BUDGET FOR AGRICULTURAL FIELDS AT  END OF TIME STEP    1, STRESS PERIOD   1
  ------------------------------------------------------------------------------

     CUMULATIVE VOLUMES      L**3       RATES FOR THIS TIME STEP      L**3/T
     ------------------                 ------------------------

           IN:                                      IN:
           ---                                      ---
               AG WELLS  =           0.0000                 AG WELLS  =           0.0000
      DIVERSION SEGMENTS =           0.0000        DIVERSION SEGMENTS =           0.0000
           GW IRRIGATION =           0.0000             GW IRRIGATION =           0.0000
           SW IRRIGATION =           0.0000             SW IRRIGATION =           0.0000
        SYSTEM LOSSES GW =           0.0000          SYSTEM LOSSES GW =           0.0000
        SYSTEM LOSSES SW =           0.0000          SYSTEM LOSSES SW =           0.0000

                TOTAL IN =           0.0000                  TOTAL IN =           0.0000

          OUT:                                     OUT:
          ----                                     ----
               AG WELLS  =           0.0000                 AG WELLS  =           0.0000
      DIVERSION SEGMENTS =           0.0000        DIVERSION SEGMENTS =           0.0000
           GW IRRIGATION =           0.0000             GW IRRIGATION =           0.0000
           SW IRRIGATION =           0.0000             SW IRRIGATION =           0.0000
        SYSTEM LOSSES GW =           0.0000          SYSTEM LOSSES GW =           0.0000
        SYSTEM LOSSES SW =           0.0000          SYSTEM LOSSES SW =           0.0000

               TOTAL OUT =           0.0000                 TOTAL OUT =           0.0000

                IN - OUT =           0.0000                  IN - OUT =           0.0000

     PERCENT DISCREPANCY =           0.00         PERCENT DISCREPANCY =           0.00



1
              HEAD IN LAYER   1 AT END OF TIME STEP   1 IN STRESS PERIOD    1
  ---------------------------------------------------------------------------

           1       2       3       4       5       6       7       8       9      10
 ...................................................................................
   1  1029.26 1028.37 6999.00 6999.00 6999.00 6999.00 6999.00 6999.00 6999.00 6999.00
   2  1028.45 1027.36 1026.88 6999.00 6999.00 1028.30 1028.48 1028.46 6999.00 6999.00
   3  6999.00 1026.66 1026.39 1026.21 1026.77 1027.48 1028.04 1028.04 6999.00 6999.00
   4  1026.25 1026.11 1025.89 1025.72 1025.72 1025.86 1026.44 1027.58 1027.34 6999.00
   5  1025.90 1025.50 1025.30 1025.20 1025.26 1025.43 1025.71 1026.26 1026.91 1027.46
   6  1025.46 1024.92 1024.71 1024.66 1024.75 1024.99 1025.37 1025.92 1026.38 1027.29
   7  1025.06 1024.16 1023.99 1024.01 1024.15 1024.46 1024.94 1025.38 1025.92 6999.00
   8  6999.00 1023.02 1023.05 1023.19 1023.40 1023.81 1024.28 1024.92 1025.60 6999.00
   9  6999.00 1021.31 1021.62 1022.06 1022.44 1023.05 1023.57 1024.31 1025.54 6999.00
  10  6999.00 1018.82 1019.57 1020.57 1021.33 1022.32 1023.23 1024.33 1025.99 1026.64
  11  6999.00 1014.68 1016.10 1018.53 1020.11 1021.81 1023.34 1025.18 1027.44 6999.00
  12  1001.77 1007.67 1011.76 1015.60 1018.78 1021.71 1024.22 1027.74 1030.81 6999.00
  13   995.54 1000.36 1006.83 1012.77 1017.95 1022.45 1026.81 1031.65 1034.50 6999.00
  14  6999.00 1005.73 1008.80 1013.40 1018.06 1022.43 1027.39 1032.95 1037.43 6999.00
  15  6999.00 6999.00 1012.40 1015.08 1018.50 1021.48 6999.00 6999.00 6999.00 6999.00

 HEAD WILL BE SAVED ON UNIT   62 AT END OF TIME STEP    1, STRESS PERIOD    1
1
  VOLUMETRIC BUDGET FOR ENTIRE MODEL AT END OF TIME STEP    1, STRESS PERIOD   1
  ------------------------------------------------------------------------------

     CUMULATIVE VOLUMES      L**3       RATES FOR THIS TIME STEP      L**3/T
     ------------------                 ------------------------

           IN:                                      IN:
           ---                                      ---
             STORAGE     =           0.0000               STORAGE     =           0.0000
       CONSTANT HEAD     =           0.0000         CONSTANT HEAD     =           0.0000
     HEAD DEP BOUNDS     =       24862.0605       HEAD DEP BOUNDS     =           0.2878
      STREAM LEAKAGE     =      832172.8125        STREAM LEAKAGE     =           9.6316
        UZF RECHARGE     =       73223.9531          UZF RECHARGE     =           0.8475
               GW ET     =           0.0000                 GW ET     =           0.0000
     SURFACE LEAKAGE     =           0.0000       SURFACE LEAKAGE     =           0.0000
           AG WELLS      =           0.0000             AG WELLS      =           0.0000

                TOTAL IN =      930258.8125                  TOTAL IN =          10.7669

          OUT:                                     OUT:
          ----                                     ----
             STORAGE     =           0.0000               STORAGE     =           0.0000
       CONSTANT HEAD     =           0.0000         CONSTANT HEAD     =           0.0000
     HEAD DEP BOUNDS     =       24756.7500       HEAD DEP BOUNDS     =           0.2865
      STREAM LEAKAGE     =      905501.8750        STREAM LEAKAGE     =          10.4803
        UZF RECHARGE     =           0.0000          UZF RECHARGE     =           0.0000
               GW ET     =           0.0000                 GW ET     =           0.0000
     SURFACE LEAKAGE     =           0.0000       SURFACE LEAKAGE     =           0.0000
           AG WELLS      =           0.0000             AG WELLS      =           0.0000

               TOTAL OUT =      930258.6250                 TOTAL OUT =          10.7669

                IN - OUT =           0.1875                  IN - OUT =       2.8610E-06

     PERCENT DISCREPANCY =           0.00         PERCENT DISCREPANCY =           0.00






         TIME SUMMARY AT END OF TIME STEP    1 IN STRESS PERIOD    1
                    SECONDS     MINUTES      HOURS       DAYS        YEARS
                    -----------------------------------------------------------
   TIME STEP LENGTH  86400.      1440.0      24.000      1.0000     2.73785E-03
 STRESS PERIOD TIME  86400.      1440.0      24.000      1.0000     2.73785E-03
         TOTAL TIME  86400.      1440.0      24.000      1.0000     2.73785E-03
1
1
                            STRESS PERIOD NO.    2, LENGTH =   2630000.    
                            -----------------------------------------------

                              NUMBER OF TIME STEPS =    30

                               MULTIPLIER FOR DELT =     1.000

                            INITIAL TIME STEP SIZE =   87666.66    

 REUSING NON-PARAMETER GHB CELLS FROM LAST STRESS PERIOD

      2 GHB CELLS

 REUSING STREAM SEGMENT DATA FROM LAST STRESS PERIOD



            AREAL INFILTRATION RATE
 READING ON UNIT   19 WITH FORMAT: (FREE)              

            1           2           3           4           5           6           7           8           9          10
 ........................................................................................................................
   1   1.0000E-10  2.0000E-10   0.000       0.000       0.000       0.000       0.000       0.000       0.000       0.000    
   2   2.0000E-10  1.0000E-10  2.0000E-10   0.000       0.000      8.0000E-10  8.0000E-10  5.0000E-10   0.000       0.000    
   3    0.000      5.0000E-10  1.0000E-10  1.0000E-10  8.0000E-10  8.0000E-10  5.0000E-10  5.0000E-10   0.000       0.000    
   4   8.0000E-10  5.0000E-10  1.0000E-10  1.0000E-10  1.0000E-10  1.0000E-10  1.0000E-10  1.0000E-10  2.0000E-10   0.000    
   5   8.0000E-10  5.0000E-10  1.0000E-10  1.0000E-10  1.0000E-10  1.0000E-10  1.0000E-10  1.0000E-10  1.0000E-10  1.0000E-10
   6   8.0000E-10  5.0000E-10  5.0000E-10  2.0000E-10  2.0000E-10  1.0000E-10  1.0000E-10  1.0000E-10  1.0000E-10  5.0000E-10
   7   8.0000E-10  5.0000E-10  5.0000E-10  2.0000E-10  2.0000E-10  1.0000E-10  1.0000E-10  2.0000E-10  2.0000E-10   0.000    
   8    0.000      5.0000E-10  5.0000E-10  2.0000E-10  2.0000E-10  1.0000E-10  1.0000E-10  2.0000E-10  5.0000E-10   0.000    
   9    0.000      5.0000E-10  5.0000E-10  2.0000E-10  2.0000E-10  1.0000E-10  1.0000E-10  2.0000E-10  5.0000E-10   0.000    
  10    0.000      5.0000E-10  5.0000E-10  2.0000E-10  2.0000E-10  1.0000E-10  1.0000E-10  2.0000E-10  5.0000E-10  8.0000E-10
  11    0.000      1.0000E-10  1.0000E-10  1.0000E-10  1.0000E-10  1.0000E-10  1.0000E-10  2.0000E-10  5.0000E-10   0.000    
  12   1.0000E-10  1.0000E-10  1.0000E-10  1.0000E-10  1.0000E-10  1.0000E-10  1.0000E-10  1.0000E-10  2.0000E-10   0.000    
  13   1.0000E-10  1.0000E-10  2.0000E-10  2.0000E-10  2.0000E-10  2.0000E-10  2.0000E-10  1.0000E-10  1.0000E-10   0.000    
  14    0.000      2.0000E-10  5.0000E-10  5.0000E-10  5.0000E-10  5.0000E-10  5.0000E-10  2.0000E-10  1.0000E-10   0.000    
  15    0.000       0.000      8.0000E-10  8.0000E-10  8.0000E-10  8.0000E-10   0.000       0.000       0.000       0.000    

                  ET RATE =  5.000000E-10

 USING ET EXTINCTION DEPTH FROM PREVIOUS STRESS PERIOD. CURRENT PERIOD IS:       2

 USING EXTINCTION WATER CONTENT FROM PREVIOUS STRESS PERIOD. CURRENT PERIOD IS:       2

 USING AIR ENTRY PRESSURE FROM PREVIOUS STRESS PERIOD. CURRENT PERIOD IS:       2

 USING ROOT PRESSURE HEAD FROM PREVIOUS STRESS PERIOD. CURRENT PERIOD IS:       2

 USING ROOT ACTIVITY FROM PREVIOUS STRESS PERIOD. CURRENT PERIOD IS:       2

 PROCESSING AG STRESS PERIOD DATA

 READING AG STRESS PERIOD DATA

 READING IRRIGATION SEGMENT

 READING IRRIGATION WELL

 READING SUPPLEMENTAL WELL

 END PROCESSING AG STRESS PERIOD DATA OPTIONS
 
 SOLVING FOR HEAD 
                                                   Max.-Head-Change                         Max.-Flux-Residual
  Residual-Control   Outer-Iter.   Inner-Iter.     Column Row Layer    Maximum-Head-Change  Column Row Layer    Maximum-Flux-Residual          L2-NORM 
          0                 1           2             5    4     1       0.4971666878E-02       5    4    1         0.2692751490E+00      0.5607047489E+00
          0                 2           2             5    4     1      -0.4836091039E-03       5    4    1        -0.2692761807E-01      0.5590423108E-01
          0                 3           1             5    4     1       0.3293196819E-04       5    4    1         0.1884933108E-02      0.3898620859E-02

    ------------------------------------------------
       NWT REQUIRED            3 OUTER ITERATIONS 
       AND A TOTAL OF          5 INNER ITERATIONS.
    ------------------------------------------------

 OUTPUT CONTROL FOR STRESS PERIOD    2   TIME STEP    1
    PRINT BUDGET
    PRINT HEAD FOR ALL LAYERS
    SAVE BUDGET
 UBDSV1 SAVING "         STORAGE" ON UNIT 102 AT TIME STEP  1, STRESS PERIOD   2
 UBDSV2 SAVING "   CONSTANT HEAD" ON UNIT 102 AT TIME STEP  1, STRESS PERIOD   2
 UBDSV1 SAVING "FLOW RIGHT FACE " ON UNIT 102 AT TIME STEP  1, STRESS PERIOD   2
 UBDSV1 SAVING "FLOW FRONT FACE " ON UNIT 102 AT TIME STEP  1, STRESS PERIOD   2

  HEAD DEP BOUNDS   PERIOD    2   STEP     1
 BOUNDARY      1   LAYER   1   ROW    13   COL     1   RATE   -0.286571    
 BOUNDARY      2   LAYER   1   ROW    14   COL     9   RATE    0.287757    



 STREAM LISTING     PERIOD      2   STEP        1

 LAYER ROW COL. STREAM  RCH.  FLOW INTO     FLOW TO   FLOW OUT OF   OVRLND.     DIRECT     STREAM       STREAM     STREAM     STREAM   STREAMBED  STREAMBED
                SEG.NO.  NO.  STRM. RCH.    AQUIFER    STRM. RCH.    RUNOFF     PRECIP       ET          HEAD       DEPTH      WIDTH   CONDCTNC.   GRADIENT

   1    1    1     1     1    8.2500E+00  1.3178E-01   8.1182E+00  0.000E+00  0.000E+00  0.000E+00  1.09389E+03  8.424E-01  7.622E+00  3.430E-02  1.281E+00
   1    2    2     1     2    8.1182E+00  2.0240E-01   7.9158E+00  0.000E+00  0.000E+00  0.000E+00  1.08890E+03  8.367E-01  7.536E+00  5.276E-02  1.279E+00
   1    3    3     1     3    7.9158E+00  1.7099E-01   7.7448E+00  0.000E+00  0.000E+00  0.000E+00  1.08325E+03  8.302E-01  7.440E+00  4.464E-02  1.277E+00
   1    3    4     1     4    7.7448E+00  1.5612E-01   7.5887E+00  0.000E+00  0.000E+00  0.000E+00  1.07823E+03  8.244E-01  7.355E+00  4.082E-02  1.275E+00
   1    4    5     2     1    5.5887E+00  2.7178E-01   5.3169E+00  0.000E+00  0.000E+00  0.000E+00  1.07242E+03  4.843E-01  1.200E+01  7.800E-02  1.161E+00
   1    5    6     2     2    5.3169E+00  2.0828E-01   5.1086E+00  0.000E+00  0.000E+00  0.000E+00  1.06698E+03  4.714E-01  1.200E+01  6.000E-02  1.157E+00
   1    6    6     2     3    5.1086E+00  2.0760E-01   4.9010E+00  0.000E+00  0.000E+00  0.000E+00  1.06225E+03  4.600E-01  1.200E+01  6.000E-02  1.153E+00
   1    7    6     2     4    4.9010E+00  2.0691E-01   4.6941E+00  0.000E+00  0.000E+00  0.000E+00  1.05752E+03  4.485E-01  1.200E+01  6.000E-02  1.149E+00
   1    8    6     2     5    4.6941E+00  2.0621E-01   4.4879E+00  0.000E+00  0.000E+00  0.000E+00  1.05280E+03  4.368E-01  1.200E+01  6.000E-02  1.146E+00
   1    3    5     3     1    2.0000E+00  2.8252E-01   1.7175E+00  0.000E+00  0.000E+00  0.000E+00  1.07555E+03  1.909E+00  9.636E+00  7.227E-02  1.955E+00
   1    3    6     3     2    1.7175E+00  2.4905E-01   1.4684E+00  0.000E+00  0.000E+00  0.000E+00  1.07264E+03  1.727E+00  8.909E+00  6.682E-02  1.864E+00
   1    3    7     3     3    1.4684E+00  1.9718E-01   1.2712E+00  0.000E+00  0.000E+00  0.000E+00  1.06987E+03  1.555E+00  8.218E+00  5.547E-02  1.777E+00
   1    4    8     3     4    1.2712E+00  2.2567E-01   1.0456E+00  0.000E+00  0.000E+00  0.000E+00  1.06682E+03  1.364E+00  7.455E+00  6.709E-02  1.682E+00
   1    5    8     3     5    1.0456E+00  1.5790E-01   8.8768E-01  0.000E+00  0.000E+00  0.000E+00  1.06362E+03  1.164E+00  6.655E+00  4.991E-02  1.582E+00
   1    6    8     3     6    8.8768E-01  5.5980E-02   8.3170E-01  0.000E+00  0.000E+00  0.000E+00  1.06158E+03  1.036E+00  6.145E+00  1.844E-02  1.518E+00
   1    5   10     4     1    1.0000E+01  9.0919E-02   9.9091E+00  0.000E+00  0.000E+00  0.000E+00  1.07836E+03  6.368E-01  1.000E+01  2.500E-02  1.212E+00
   1    5    9     4     2    9.9091E+00  1.8158E-01   9.7275E+00  0.000E+00  0.000E+00  0.000E+00  1.07154E+03  6.315E-01  1.000E+01  5.000E-02  1.211E+00
   1    6    8     4     3    9.7275E+00  1.2689E-01   9.6006E+00  0.000E+00  0.000E+00  0.000E+00  1.06381E+03  6.256E-01  1.000E+01  3.500E-02  1.209E+00
   1    6    8     5     1    1.0432E+01  2.2686E-01   1.0205E+01  0.000E+00  0.000E+00  0.000E+00  1.05868E+03  6.790E-01  1.542E+01  6.166E-02  1.226E+00
   1    7    7     5     2    1.0205E+01  2.7894E-01   9.9265E+00  0.000E+00  0.000E+00  0.000E+00  1.05417E+03  6.732E-01  1.519E+01  7.594E-02  1.224E+00
   1    8    7     5     3    9.9265E+00  1.9221E-01   9.7343E+00  0.000E+00  0.000E+00  0.000E+00  1.04992E+03  6.676E-01  1.497E+01  5.241E-02  1.223E+00
   1    8    6     5     4    9.7343E+00  1.3577E-01   9.5985E+00  0.000E+00  0.000E+00  0.000E+00  1.04691E+03  6.637E-01  1.482E+01  3.706E-02  1.221E+00
   1    9    6     6     1    1.4086E+01  2.3167E-01   1.3855E+01  0.000E+00  0.000E+00  0.000E+00  1.04359E+03  8.612E-01  1.200E+01  6.000E-02  1.287E+00
   1   10    7     6     2    1.3855E+01  2.3116E-01   1.3624E+01  0.000E+00  0.000E+00  0.000E+00  1.03903E+03  8.526E-01  1.200E+01  6.000E-02  1.284E+00
   1   11    7     6     3    1.3624E+01  2.3064E-01   1.3393E+01  0.000E+00  0.000E+00  0.000E+00  1.03448E+03  8.440E-01  1.200E+01  6.000E-02  1.281E+00
   1   12    7     6     4    1.3393E+01  2.3012E-01   1.3163E+01  0.000E+00  0.000E+00  0.000E+00  1.02993E+03  8.353E-01  1.200E+01  6.000E-02  1.278E+00
   1   13    7     6     5    1.3163E+01 -1.7911E-02   1.3181E+01  0.000E+00  0.000E+00  0.000E+00  1.02674E+03  8.313E-01  1.200E+01  2.400E-01 -2.488E-02
   1   14    9     7     1    1.5000E+02  1.3652E+00   1.4863E+02  0.000E+00  0.000E+00  0.000E+00  1.03987E+03  2.288E+00  5.529E+01  5.593E-01  8.136E-01
   1   13    8     7     2    1.4863E+02  1.9205E+00   1.4671E+02  0.000E+00  0.000E+00  0.000E+00  1.03478E+03  2.279E+00  5.526E+01  6.148E-01  1.041E+00
   1   13    7     7     3    1.4671E+02  1.6048E+00   1.4511E+02  0.000E+00  0.000E+00  0.000E+00  1.02969E+03  2.269E+00  5.521E+01  5.584E-01  9.579E-01
   1   13    6     8     1    1.5829E+02  9.7525E-01   1.5732E+02  0.000E+00  0.000E+00  0.000E+00  1.02475E+03  2.871E+00  4.163E+01  4.242E-01  7.663E-01
   1   13    5     8     2    1.5732E+02  2.2782E-01   1.5709E+02  0.000E+00  0.000E+00  0.000E+00  1.01849E+03  2.867E+00  4.157E+01  4.236E-01  1.793E-01
   1   13    4     8     3    1.5709E+02 -2.2030E+00   1.5929E+02  0.000E+00  0.000E+00  0.000E+00  1.01225E+03  2.874E+00  4.167E+01  4.246E+00 -1.729E-01
   1   13    3     8     4    1.5929E+02 -3.4860E+00   1.6278E+02  0.000E+00  0.000E+00  0.000E+00  1.00602E+03  2.893E+00  4.195E+01  4.274E+00 -2.718E-01
   1   13    2     8     5    1.6278E+02 -2.4627E+00   1.6524E+02  0.000E+00  0.000E+00  0.000E+00  9.99788E+02  2.913E+00  4.223E+01  4.304E+00 -1.907E-01
   1   13    1     8     6    1.6524E+02 -1.9181E+00   1.6716E+02  0.000E+00  0.000E+00  0.000E+00  9.94802E+02  2.927E+00  4.245E+01  2.595E+00 -2.464E-01
   1    8    6     9     1    0.0000E+00  0.0000E+00   0.0000E+00  0.000E+00  0.000E+00  0.000E+00  1.07875E+03  0.000E+00  4.000E+00  0.000E+00  1.000E+00
   1    8    5     9     2    0.0000E+00  0.0000E+00   0.0000E+00  0.000E+00  0.000E+00  0.000E+00  1.07825E+03  0.000E+00  4.000E+00  0.000E+00  1.000E+00



 UBDSV3 SAVING "           GW ET" ON UNIT  61 AT TIME STEP  1, STRESS PERIOD   2
 UBDSV3 SAVING "    UZF RECHARGE" ON UNIT  61 AT TIME STEP  1, STRESS PERIOD   2
 UBDSV3 SAVING " SURFACE LEAKAGE" ON UNIT  61 AT TIME STEP  1, STRESS PERIOD   2
 UBDSV3 SAVING "       HORT+DUNN" ON UNIT  61 AT TIME STEP  1, STRESS PERIOD   2
 UBDSV3 SAVING "  STORAGE CHANGE" ON UNIT  61 AT TIME STEP  1, STRESS PERIOD   2


UNSATURATED ZONE PACKAGE VOLUMETRIC BUDGET FOR  TIME STEP     1 STRESS PERIOD    2
  ------------------------------------------------------------------------------



     CUMULATIVE VOLUMES      L**3       RATES FOR THIS TIME STEP      L**3/T
     ------------------                 ------------------------

           IN:                                      IN:
           ---                                      ---
        INFILTRATION =      147521.4958          INFILTRATION =           0.8475

          OUT:                                     OUT:
          ----                                     ----
              UZF ET =       65735.6246                UZF ET =           0.7498
        UZF RECHARGE =       73224.0000          UZF RECHARGE =       0.0000E+00

            IN - OUT =        8561.8711              IN - OUT =       9.7664E-02

          STORAGE:                                 STORAGE:
          --------                                 --------
      STORAGE CHANGE =        8561.8722        STORAGE CHANGE =       9.7664E-02

 PERCENT DISCREPANCY IS DIFFERENCE BETWEEN IN-OUT MINUS CHANGE IN STORAGE
 DIVIDED BY THE AVERAGE OF IN AND OUT TIMES 100

 PERCENT DISCREPANCY =           0.00     PERCENT DISCREPANCY =           0.00






 

            AG WELLS      PERIOD    2   STEP   1
 AG WELL      1   LAYER   1   ROW     6   COL     4   RATE     0.00000    
 AG WELL      2   LAYER   1   ROW     6   COL     5   RATE     0.00000    
 AG WELL      3   LAYER   1   ROW     7   COL     4   RATE     0.00000    
 AG WELL      4   LAYER   1   ROW     7   COL     5   RATE     0.00000    
 AG WELL      5   LAYER   1   ROW     8   COL     4   RATE     0.00000    
 AG WELL      6   LAYER   1   ROW     8   COL     5   RATE     0.00000    
 
 

   DIVERSION SEGMENTS     PERIOD    2   STEP   1
 
 

        SW IRRIGATION     PERIOD    2   STEP   1
 
 

        GW IRRIGATION     PERIOD    2   STEP   1
 
1
  VOLUMETRIC BUDGET FOR AGRICULTURAL FIELDS AT  END OF TIME STEP    1, STRESS PERIOD   2
  ------------------------------------------------------------------------------

     CUMULATIVE VOLUMES      L**3       RATES FOR THIS TIME STEP      L**3/T
     ------------------                 ------------------------

           IN:                                      IN:
           ---                                      ---
               AG WELLS  =           0.0000                 AG WELLS  =           0.0000
      DIVERSION SEGMENTS =           0.0000        DIVERSION SEGMENTS =           0.0000
           GW IRRIGATION =           0.0000             GW IRRIGATION =           0.0000
           SW IRRIGATION =           0.0000             SW IRRIGATION =           0.0000
        SYSTEM LOSSES GW =           0.0000          SYSTEM LOSSES GW =           0.0000
        SYSTEM LOSSES SW =           0.0000          SYSTEM LOSSES SW =           0.0000

                TOTAL IN =           0.0000                  TOTAL IN =           0.0000

          OUT:                                     OUT:
          ----                                     ----
               AG WELLS  =           0.0000                 AG WELLS  =           0.0000
      DIVERSION SEGMENTS =           0.0000        DIVERSION SEGMENTS =           0.0000
           GW IRRIGATION =           0.0000             GW IRRIGATION =           0.0000
           SW IRRIGATION =           0.0000             SW IRRIGATION =           0.0000
        SYSTEM LOSSES GW =           0.0000          SYSTEM LOSSES GW =           0.0000
        SYSTEM LOSSES SW =           0.0000          SYSTEM LOSSES SW =           0.0000

               TOTAL OUT =           0.0000                 TOTAL OUT =           0.0000

                IN - OUT =           0.0000                  IN - OUT =           0.0000

     PERCENT DISCREPANCY =           0.00         PERCENT DISCREPANCY =           0.00



1
              HEAD IN LAYER   1 AT END OF TIME STEP   1 IN STRESS PERIOD    2
  ---------------------------------------------------------------------------

           1       2       3       4       5       6       7       8       9      10
 ...................................................................................
   1  1029.26 1028.36 6999.00 6999.00 6999.00 6999.00 6999.00 6999.00 6999.00 6999.00
   2  1028.45 1027.36 1026.88 6999.00 6999.00 1028.30 1028.48 1028.46 6999.00 6999.00
   3  6999.00 1026.66 1026.39 1026.21 1026.77 1027.48 1028.04 1028.04 6999.00 6999.00
   4  1026.25 1026.11 1025.89 1025.72 1025.72 1025.86 1026.44 1027.58 1027.34 6999.00
   5  1025.90 1025.50 1025.30 1025.20 1025.26 1025.43 1025.71 1026.26 1026.91 1027.46
   6  1025.46 1024.92 1024.71 1024.66 1024.75 1024.99 1025.37 1025.92 1026.38 1027.29
   7  1025.06 1024.16 1023.99 1024.01 1024.15 1024.46 1024.94 1025.38 1025.92 6999.00
   8  6999.00 1023.02 1023.05 1023.19 1023.40 1023.81 1024.28 1024.92 1025.60 6999.00
   9  6999.00 1021.31 1021.62 1022.06 1022.44 1023.05 1023.57 1024.31 1025.54 6999.00
  10  6999.00 1018.82 1019.57 1020.57 1021.33 1022.32 1023.23 1024.33 1025.99 1026.64
  11  6999.00 1014.68 1016.10 1018.53 1020.11 1021.81 1023.34 1025.18 1027.44 6999.00
  12  1001.77 1007.67 1011.76 1015.60 1018.78 1021.71 1024.22 1027.74 1030.81 6999.00
  13   995.54 1000.36 1006.83 1012.77 1017.95 1022.45 1026.81 1031.65 1034.50 6999.00
  14  6999.00 1005.73 1008.80 1013.40 1018.06 1022.43 1027.39 1032.95 1037.43 6999.00
  15  6999.00 6999.00 1012.40 1015.08 1018.50 1021.48 6999.00 6999.00 6999.00 6999.00
1
  VOLUMETRIC BUDGET FOR ENTIRE MODEL AT END OF TIME STEP    1, STRESS PERIOD   2
  ------------------------------------------------------------------------------

     CUMULATIVE VOLUMES      L**3       RATES FOR THIS TIME STEP      L**3/T
     ------------------                 ------------------------

           IN:                                      IN:
           ---                                      ---
             STORAGE     =       65430.3203               STORAGE     =           0.7464
       CONSTANT HEAD     =           0.0000         CONSTANT HEAD     =           0.0000
     HEAD DEP BOUNDS     =       50088.7578       HEAD DEP BOUNDS     =           0.2878
      STREAM LEAKAGE     =     1812343.5000        STREAM LEAKAGE     =          11.1807
        UZF RECHARGE     =       73223.9531          UZF RECHARGE     =           0.0000
               GW ET     =           0.0000                 GW ET     =           0.0000
     SURFACE LEAKAGE     =           0.0000       SURFACE LEAKAGE     =           0.0000
           AG WELLS      =           0.0000             AG WELLS      =           0.0000

                TOTAL IN =     2001086.6250                  TOTAL IN =          12.2148

          OUT:                                     OUT:
          ----                                     ----
             STORAGE     =      161381.9375               STORAGE     =           1.8409
       CONSTANT HEAD     =           0.0000         CONSTANT HEAD     =           0.0000
     HEAD DEP BOUNDS     =       49879.4922       HEAD DEP BOUNDS     =           0.2866
      STREAM LEAKAGE     =     1789852.0000        STREAM LEAKAGE     =          10.0876
        UZF RECHARGE     =           0.0000          UZF RECHARGE     =           0.0000
               GW ET     =           0.0000                 GW ET     =           0.0000
     SURFACE LEAKAGE     =           0.0000       SURFACE LEAKAGE     =           0.0000
           AG WELLS      =           0.0000             AG WELLS      =           0.0000

               TOTAL OUT =     2001113.5000                 TOTAL OUT =          12.2151

                IN - OUT =         -26.8750                  IN - OUT =      -3.0899E-04

     PERCENT DISCREPANCY =          -0.00         PERCENT DISCREPANCY =          -0.00






         TIME SUMMARY AT END OF TIME STEP    1 IN STRESS PERIOD    2
                    SECONDS     MINUTES      HOURS       DAYS        YEARS
                    -----------------------------------------------------------
   TIME STEP LENGTH  87667.      1461.1      24.352      1.0147     2.77799E-03
 STRESS PERIOD TIME  87667.      1461.1      24.352      1.0147     2.77799E-03
         TOTAL TIME 1.74067E+05  2901.1      48.352      2.0147     5.51584E-03
1
 
 SOLVING FOR HEAD 
                                                   Max.-Head-Change                         Max.-Flux-Residual
  Residual-Control   Outer-Iter.   Inner-Iter.     Column Row Layer    Maximum-Head-Change  Column Row Layer    Maximum-Flux-Residual          L2-NORM 
          0                 1           2             5    4     1       0.4771848866E-02       5    4    1         0.2582579971E+00      0.5403926138E+00
          0                 2           2             5    4     1      -0.4641721319E-03       5    4    1        -0.2582589402E-01      0.5389205072E-01
          0                 3           1             5    4     1       0.3160838333E-04       5    4    1         0.1807812460E-02      0.3758911888E-02

    ------------------------------------------------
       NWT REQUIRED            3 OUTER ITERATIONS 
       AND A TOTAL OF          5 INNER ITERATIONS.
    ------------------------------------------------

 NO OUTPUT CONTROL FOR STRESS PERIOD    2   TIME STEP    2
 
 SOLVING FOR HEAD 
                                                   Max.-Head-Change                         Max.-Flux-Residual
  Residual-Control   Outer-Iter.   Inner-Iter.     Column Row Layer    Maximum-Head-Change  Column Row Layer    Maximum-Flux-Residual          L2-NORM 
          0                 1           2             5    4     1       0.4583646614E-02       5    4    1         0.2478846946E+00      0.5216599243E+00
          0                 2           2             5    4     1      -0.4458650693E-03       5    4    1        -0.2478855577E-01      0.5203508354E-01
          0                 3           1             5    4     1       0.3036174166E-04       5    4    1         0.1735198828E-02      0.3630483295E-02

    ------------------------------------------------
       NWT REQUIRED            3 OUTER ITERATIONS 
       AND A TOTAL OF          5 INNER ITERATIONS.
    ------------------------------------------------

 NO OUTPUT CONTROL FOR STRESS PERIOD    2   TIME STEP    3
 
 SOLVING FOR HEAD 
                                                   Max.-Head-Change                         Max.-Flux-Residual
  Residual-Control   Outer-Iter.   Inner-Iter.     Column Row Layer    Maximum-Head-Change  Column Row Layer    Maximum-Flux-Residual          L2-NORM 
          0                 1           2             5    4     1       0.4406074969E-02       5    4    1         0.2381005685E+00      0.5043754330E+00
          0                 2           2             5    4     1      -0.4285920862E-03       5    4    1        -0.2381013595E-01      0.5032141526E-01
          0                 3           1             5    4     1       0.2918551645E-04       5    4    1         0.1666709469E-02      0.3511958027E-02

    ------------------------------------------------
       NWT REQUIRED            3 OUTER ITERATIONS 
       AND A TOTAL OF          5 INNER ITERATIONS.
    ------------------------------------------------

 NO OUTPUT CONTROL FOR STRESS PERIOD    2   TIME STEP    4
 
 SOLVING FOR HEAD 
                                                   Max.-Head-Change                         Max.-Flux-Residual
  Residual-Control   Outer-Iter.   Inner-Iter.     Column Row Layer    Maximum-Head-Change  Column Row Layer    Maximum-Flux-Residual          L2-NORM 
          0                 1           2             5    4     1       0.4238682244E-02       5    4    1         0.2288806993E+00      0.4884228697E+00
          0                 2           2             5    4     1      -0.4123092439E-03       5    4    1        -0.2288814246E-01      0.4873944241E-01
          0                 3           1             5    4     1       0.2807671661E-04       5    4    1         0.1602169973E-02      0.3402466816E-02

    ------------------------------------------------
       NWT REQUIRED            3 OUTER ITERATIONS 
       AND A TOTAL OF          5 INNER ITERATIONS.
    ------------------------------------------------

 NO OUTPUT CONTROL FOR STRESS PERIOD    2   TIME STEP    5
 
 SOLVING FOR HEAD 
                                                   Max.-Head-Change                         Max.-Flux-Residual
  Residual-Control   Outer-Iter.   Inner-Iter.     Column Row Layer    Maximum-Head-Change  Column Row Layer    Maximum-Flux-Residual          L2-NORM 
          0                 1           2             5    4     1       0.4080580036E-02       5    4    1         0.2201755166E+00      0.4736649229E+00
          0                 2           2             5    4     1      -0.3969301254E-03       5    4    1        -0.2201761830E-01      0.4727546707E-01
          0                 3           1             5    4     1       0.2702945702E-04       5    4    1         0.1541233318E-02      0.3300549705E-02

    ------------------------------------------------
       NWT REQUIRED            3 OUTER ITERATIONS 
       AND A TOTAL OF          5 INNER ITERATIONS.
    ------------------------------------------------

 NO OUTPUT CONTROL FOR STRESS PERIOD    2   TIME STEP    6
 
 SOLVING FOR HEAD 
                                                   Max.-Head-Change                         Max.-Flux-Residual
  Residual-Control   Outer-Iter.   Inner-Iter.     Column Row Layer    Maximum-Head-Change  Column Row Layer    Maximum-Flux-Residual          L2-NORM 
          0                 1           2             5    4     1       0.3931653136E-02       5    4    1         0.2119781742E+00      0.4600295403E+00
          0                 2           2             5    4     1      -0.3824435221E-03       5    4    1        -0.2119787871E-01      0.4592215656E-01
          0                 3           1             5    4     1       0.2604297419E-04       5    4    1         0.1483851583E-02      0.3207476688E-02

    ------------------------------------------------
       NWT REQUIRED            3 OUTER ITERATIONS 
       AND A TOTAL OF          5 INNER ITERATIONS.
    ------------------------------------------------

 NO OUTPUT CONTROL FOR STRESS PERIOD    2   TIME STEP    7
 
 SOLVING FOR HEAD 
                                                   Max.-Head-Change                         Max.-Flux-Residual
  Residual-Control   Outer-Iter.   Inner-Iter.     Column Row Layer    Maximum-Head-Change  Column Row Layer    Maximum-Flux-Residual          L2-NORM 
          0                 1           2             5    4     1       0.3790839201E-02       5    4    1         0.2042304030E+00      0.4474016379E+00
          0                 2           2             5    4     1      -0.3687460954E-03       5    4    1        -0.2042309670E-01      0.4466867068E-01
          0                 3           1             5    4     1       0.2511023086E-04       5    4    1         0.1429616859E-02      0.3120145003E-02

    ------------------------------------------------
       NWT REQUIRED            3 OUTER ITERATIONS 
       AND A TOTAL OF          5 INNER ITERATIONS.
    ------------------------------------------------

 NO OUTPUT CONTROL FOR STRESS PERIOD    2   TIME STEP    8
 
 SOLVING FOR HEAD 
                                                   Max.-Head-Change                         Max.-Flux-Residual
  Residual-Control   Outer-Iter.   Inner-Iter.     Column Row Layer    Maximum-Head-Change  Column Row Layer    Maximum-Flux-Residual          L2-NORM 
          0                 1           2             5    4     1       0.3657864785E-02       5    4    1         0.1969163543E+00      0.4356950680E+00
          0                 2           2             5    4     1      -0.3558112468E-03       5    4    1        -0.1969168741E-01      0.4350628254E-01
          0                 3           1             5    4     1       0.2422941649E-04       5    4    1         0.1378418233E-02      0.3039655930E-02

    ------------------------------------------------
       NWT REQUIRED            3 OUTER ITERATIONS 
       AND A TOTAL OF          5 INNER ITERATIONS.
    ------------------------------------------------

 NO OUTPUT CONTROL FOR STRESS PERIOD    2   TIME STEP    9
 
 SOLVING FOR HEAD 
                                                   Max.-Head-Change                         Max.-Flux-Residual
  Residual-Control   Outer-Iter.   Inner-Iter.     Column Row Layer    Maximum-Head-Change  Column Row Layer    Maximum-Flux-Residual          L2-NORM 
          0                 1           2             5    4     1       0.3532230609E-02       5    4    1         0.1900087706E+00      0.4248474512E+00
          0                 2           2             5    4     1      -0.3435904094E-03       5    4    1        -0.1900092505E-01      0.4242879365E-01
          0                 3           1             5    4     1       0.2339722356E-04       5    4    1         0.1330064849E-02      0.2964925330E-02

    ------------------------------------------------
       NWT REQUIRED            3 OUTER ITERATIONS 
       AND A TOTAL OF          5 INNER ITERATIONS.
    ------------------------------------------------

 NO OUTPUT CONTROL FOR STRESS PERIOD    2   TIME STEP   10
 
 SOLVING FOR HEAD 
                                                   Max.-Head-Change                         Max.-Flux-Residual
  Residual-Control   Outer-Iter.   Inner-Iter.     Column Row Layer    Maximum-Head-Change  Column Row Layer    Maximum-Flux-Residual          L2-NORM 
          0                 1           2             5    4     1       0.3413719440E-02       5    4    1         0.1834948456E+00      0.4147734414E+00
          0                 2           2             5    4     1      -0.3320624520E-03       5    4    1        -0.1834952888E-01      0.4142774901E-01
          0                 3           1             5    4     1       0.2261221382E-04       5    4    1         0.1284467161E-02      0.2895291327E-02

    ------------------------------------------------
       NWT REQUIRED            3 OUTER ITERATIONS 
       AND A TOTAL OF          5 INNER ITERATIONS.
    ------------------------------------------------

 NO OUTPUT CONTROL FOR STRESS PERIOD    2   TIME STEP   11
 
 SOLVING FOR HEAD 
                                                   Max.-Head-Change                         Max.-Flux-Residual
  Residual-Control   Outer-Iter.   Inner-Iter.     Column Row Layer    Maximum-Head-Change  Column Row Layer    Maximum-Flux-Residual          L2-NORM 
          0                 1           2             5    4     1       0.3301407998E-02       5    4    1         0.1773240514E+00      0.4054010488E+00
          0                 2           2             5    4     1      -0.3211375633E-03       5    4    1        -0.1773244614E-01      0.4049601151E-01
          0                 3           1             5    4     1       0.2186826997E-04       5    4    1         0.1241271389E-02      0.2830718806E-02

    ------------------------------------------------
       NWT REQUIRED            3 OUTER ITERATIONS 
       AND A TOTAL OF          5 INNER ITERATIONS.
    ------------------------------------------------

 NO OUTPUT CONTROL FOR STRESS PERIOD    2   TIME STEP   12
 
 SOLVING FOR HEAD 
                                                   Max.-Head-Change                         Max.-Flux-Residual
  Residual-Control   Outer-Iter.   Inner-Iter.     Column Row Layer    Maximum-Head-Change  Column Row Layer    Maximum-Flux-Residual          L2-NORM 
          0                 1           2             5    4     1       0.3195383374E-02       5    4    1         0.1715009104E+00      0.3966851202E+00
          0                 2           2             5    4     1      -0.3108242143E-03       5    4    1        -0.1715012899E-01      0.3962953515E-01
          0                 3           1             5    4     1       0.2116597020E-04       5    4    1         0.1200509189E-02      0.2770438961E-02

    ------------------------------------------------
       NWT REQUIRED            3 OUTER ITERATIONS 
       AND A TOTAL OF          5 INNER ITERATIONS.
    ------------------------------------------------

 NO OUTPUT CONTROL FOR STRESS PERIOD    2   TIME STEP   13
 
 SOLVING FOR HEAD 
                                                   Max.-Head-Change                         Max.-Flux-Residual
  Residual-Control   Outer-Iter.   Inner-Iter.     Column Row Layer    Maximum-Head-Change  Column Row Layer    Maximum-Flux-Residual          L2-NORM 
          0                 1           2             5    4     1       0.3094775221E-02       5    4    1         0.1659775448E+00      0.3885592615E+00
          0                 2           2             5    4     1      -0.3010377445E-03       5    4    1        -0.1659778965E-01      0.3882158098E-01
          0                 3           1             5    4     1       0.2049954892E-04       5    4    1         0.1161845449E-02      0.2713995864E-02

    ------------------------------------------------
       NWT REQUIRED            3 OUTER ITERATIONS 
       AND A TOTAL OF          5 INNER ITERATIONS.
    ------------------------------------------------

 NO OUTPUT CONTROL FOR STRESS PERIOD    2   TIME STEP   14
 
 SOLVING FOR HEAD 
                                                   Max.-Head-Change                         Max.-Flux-Residual
  Residual-Control   Outer-Iter.   Inner-Iter.     Column Row Layer    Maximum-Head-Change  Column Row Layer    Maximum-Flux-Residual          L2-NORM 
          0                 1           2             5    4     1       0.2999970496E-02       5    4    1         0.1607742558E+00      0.3809926144E+00
          0                 2           2             5    4     1      -0.2918157933E-03       5    4    1        -0.1607745822E-01      0.3806886680E-01
          0                 3           1             5    4     1       0.1987156858E-04       5    4    1         0.1125422250E-02      0.2662045226E-02

    ------------------------------------------------
       NWT REQUIRED            3 OUTER ITERATIONS 
       AND A TOTAL OF          5 INNER ITERATIONS.
    ------------------------------------------------

 NO OUTPUT CONTROL FOR STRESS PERIOD    2   TIME STEP   15
 
 SOLVING FOR HEAD 
                                                   Max.-Head-Change                         Max.-Flux-Residual
  Residual-Control   Outer-Iter.   Inner-Iter.     Column Row Layer    Maximum-Head-Change  Column Row Layer    Maximum-Flux-Residual          L2-NORM 
          0                 1           2             5    4     1       0.2909894024E-02       5    4    1         0.1558326222E+00      0.3739167242E+00
          0                 2           2             5    4     1      -0.2830537752E-03       5    4    1        -0.1558329251E-01      0.3736475261E-01
          0                 3           1             5    4     1       0.1927490840E-04       5    4    1         0.1090830656E-02      0.2613179974E-02

    ------------------------------------------------
       NWT REQUIRED            3 OUTER ITERATIONS 
       AND A TOTAL OF          5 INNER ITERATIONS.
    ------------------------------------------------

 NO OUTPUT CONTROL FOR STRESS PERIOD    2   TIME STEP   16
 
 SOLVING FOR HEAD 
                                                   Max.-Head-Change                         Max.-Flux-Residual
  Residual-Control   Outer-Iter.   Inner-Iter.     Column Row Layer    Maximum-Head-Change  Column Row Layer    Maximum-Flux-Residual          L2-NORM 
          0                 1           2             5    4     1       0.2824734754E-02       5    4    1         0.1511623018E+00      0.3673108398E+00
          0                 2           2             5    4     1      -0.2747700697E-03       5    4    1        -0.1511625835E-01      0.3670722980E-01
          0                 3           1             5    4     1       0.1871081966E-04       5    4    1         0.1058138277E-02      0.2567322380E-02

    ------------------------------------------------
       NWT REQUIRED            3 OUTER ITERATIONS 
       AND A TOTAL OF          5 INNER ITERATIONS.
    ------------------------------------------------

 NO OUTPUT CONTROL FOR STRESS PERIOD    2   TIME STEP   17
 
 SOLVING FOR HEAD 
                                                   Max.-Head-Change                         Max.-Flux-Residual
  Residual-Control   Outer-Iter.   Inner-Iter.     Column Row Layer    Maximum-Head-Change  Column Row Layer    Maximum-Flux-Residual          L2-NORM 
          0                 1           2             5    4     1       0.2743946317E-02       5    4    1         0.1467338490E+00      0.3611125834E+00
          0                 2           2             5    4     1      -0.2669115301E-03       5    4    1        -0.1467341113E-01      0.3609012200E-01
          0                 3           1             5    4     1       0.1817568317E-04       5    4    1         0.1027138984E-02      0.2524302280E-02

    ------------------------------------------------
       NWT REQUIRED            3 OUTER ITERATIONS 
       AND A TOTAL OF          5 INNER ITERATIONS.
    ------------------------------------------------

 NO OUTPUT CONTROL FOR STRESS PERIOD    2   TIME STEP   18
 
 SOLVING FOR HEAD 
                                                   Max.-Head-Change                         Max.-Flux-Residual
  Residual-Control   Outer-Iter.   Inner-Iter.     Column Row Layer    Maximum-Head-Change  Column Row Layer    Maximum-Flux-Residual          L2-NORM 
          0                 1           2             5    4     1       0.2667267928E-02       5    4    1         0.1425320160E+00      0.3553067073E+00
          0                 2           2             5    4     1      -0.2594527879E-03       5    4    1        -0.1425322602E-01      0.3551210940E-01
          0                 3           1             5    4     1       0.1766777144E-04       5    4    1         0.9977260479E-03      0.2484093864E-02

    ------------------------------------------------
       NWT REQUIRED            3 OUTER ITERATIONS 
       AND A TOTAL OF          5 INNER ITERATIONS.
    ------------------------------------------------

 NO OUTPUT CONTROL FOR STRESS PERIOD    2   TIME STEP   19
 
 SOLVING FOR HEAD 
                                                   Max.-Head-Change                         Max.-Flux-Residual
  Residual-Control   Outer-Iter.   Inner-Iter.     Column Row Layer    Maximum-Head-Change  Column Row Layer    Maximum-Flux-Residual          L2-NORM 
          0                 1           2             5    4     1       0.2594683874E-02       5    4    1         0.1385563632E+00      0.3498584713E+00
          0                 2           2             5    4     1      -0.2523923151E-03       5    4    1        -0.1385565912E-01      0.3496913352E-01
          0                 3           1             5    4     1       0.1718697963E-04       5    4    1         0.9698963459E-03      0.2446047290E-02

    ------------------------------------------------
       NWT REQUIRED            3 OUTER ITERATIONS 
       AND A TOTAL OF          5 INNER ITERATIONS.
    ------------------------------------------------

 NO OUTPUT CONTROL FOR STRESS PERIOD    2   TIME STEP   20
 
 SOLVING FOR HEAD 
                                                   Max.-Head-Change                         Max.-Flux-Residual
  Residual-Control   Outer-Iter.   Inner-Iter.     Column Row Layer    Maximum-Head-Change  Column Row Layer    Maximum-Flux-Residual          L2-NORM 
          0                 1           2             5    4     1       0.2525710318E-02       5    4    1         0.1347799133E+00      0.3447335523E+00
          0                 2           2             5    4     1      -0.2456830467E-03       5    4    1        -0.1347801258E-01      0.3445867527E-01
          0                 3           1             5    4     1       0.1673010413E-04       5    4    1         0.9434610924E-03      0.2410737664E-02

    ------------------------------------------------
       NWT REQUIRED            3 OUTER ITERATIONS 
       AND A TOTAL OF          5 INNER ITERATIONS.
    ------------------------------------------------

 NO OUTPUT CONTROL FOR STRESS PERIOD    2   TIME STEP   21
 
 SOLVING FOR HEAD 
                                                   Max.-Head-Change                         Max.-Flux-Residual
  Residual-Control   Outer-Iter.   Inner-Iter.     Column Row Layer    Maximum-Head-Change  Column Row Layer    Maximum-Flux-Residual          L2-NORM 
          0                 1           2             5    4     1       0.2460369697E-02       5    4    1         0.1312037428E+00      0.3399136851E+00
          0                 2           2             5    4     1      -0.2393271658E-03       5    4    1        -0.1312039414E-01      0.3397835671E-01
          0                 3           1             5    4     1       0.1629729285E-04       5    4    1         0.9184278090E-03      0.2377290751E-02

    ------------------------------------------------
       NWT REQUIRED            3 OUTER ITERATIONS 
       AND A TOTAL OF          5 INNER ITERATIONS.
    ------------------------------------------------

 NO OUTPUT CONTROL FOR STRESS PERIOD    2   TIME STEP   22
 
 SOLVING FOR HEAD 
                                                   Max.-Head-Change                         Max.-Flux-Residual
  Residual-Control   Outer-Iter.   Inner-Iter.     Column Row Layer    Maximum-Head-Change  Column Row Layer    Maximum-Flux-Residual          L2-NORM 
          0                 1           2             5    4     1       0.2398203527E-02       5    4    1         0.1278028525E+00      0.3353733044E+00
          0                 2           2             5    4     1      -0.2332800742E-03       5    4    1        -0.1278030381E-01      0.3352587781E-01
          0                 3           1             5    4     1       0.1588550905E-04       5    4    1         0.8946214930E-03      0.2345740745E-02

    ------------------------------------------------
       NWT REQUIRED            3 OUTER ITERATIONS 
       AND A TOTAL OF          5 INNER ITERATIONS.
    ------------------------------------------------

 NO OUTPUT CONTROL FOR STRESS PERIOD    2   TIME STEP   23
 
 SOLVING FOR HEAD 
                                                   Max.-Head-Change                         Max.-Flux-Residual
  Residual-Control   Outer-Iter.   Inner-Iter.     Column Row Layer    Maximum-Head-Change  Column Row Layer    Maximum-Flux-Residual          L2-NORM 
          0                 1           2             5    4     1       0.2339267473E-02       5    4    1         0.1245796789E+00      0.3310885217E+00
          0                 2           2             5    4     1      -0.2275471861E-03       5    4    1        -0.1245798528E-01      0.3309851874E-01
          0                 3           1             5    4     1       0.1549512122E-04       5    4    1         0.8720591832E-03      0.2315882109E-02

    ------------------------------------------------
       NWT REQUIRED            3 OUTER ITERATIONS 
       AND A TOTAL OF          5 INNER ITERATIONS.
    ------------------------------------------------

 NO OUTPUT CONTROL FOR STRESS PERIOD    2   TIME STEP   24
 
 SOLVING FOR HEAD 
                                                   Max.-Head-Change                         Max.-Flux-Residual
  Residual-Control   Outer-Iter.   Inner-Iter.     Column Row Layer    Maximum-Head-Change  Column Row Layer    Maximum-Flux-Residual          L2-NORM 
          0                 1           2             5    4     1       0.2283365698E-02       5    4    1         0.1215238906E+00      0.3270408771E+00
          0                 2           2             5    4     1      -0.2221094521E-03       5    4    1        -0.1215240536E-01      0.3269509909E-01
          0                 3           1             5    4     1       0.1512483193E-04       5    4    1         0.8506685831E-03      0.2287891361E-02

    ------------------------------------------------
       NWT REQUIRED            3 OUTER ITERATIONS 
       AND A TOTAL OF          5 INNER ITERATIONS.
    ------------------------------------------------

 NO OUTPUT CONTROL FOR STRESS PERIOD    2   TIME STEP   25
 
 SOLVING FOR HEAD 
                                                   Max.-Head-Change                         Max.-Flux-Residual
  Residual-Control   Outer-Iter.   Inner-Iter.     Column Row Layer    Maximum-Head-Change  Column Row Layer    Maximum-Flux-Residual          L2-NORM 
          0                 1           2             5    4     1       0.2230079846E-02       5    4    1         0.1186123882E+00      0.3232037862E+00
          0                 2           2             5    4     1      -0.2169261767E-03       5    4    1        -0.1186125409E-01      0.3231225773E-01
          0                 3           1             5    4     1       0.1477187043E-04       5    4    1         0.8302879903E-03      0.2261016746E-02

    ------------------------------------------------
       NWT REQUIRED            3 OUTER ITERATIONS 
       AND A TOTAL OF          5 INNER ITERATIONS.
    ------------------------------------------------

 NO OUTPUT CONTROL FOR STRESS PERIOD    2   TIME STEP   26
 
 SOLVING FOR HEAD 
                                                   Max.-Head-Change                         Max.-Flux-Residual
  Residual-Control   Outer-Iter.   Inner-Iter.     Column Row Layer    Maximum-Head-Change  Column Row Layer    Maximum-Flux-Residual          L2-NORM 
          0                 1           2             5    4     1       0.2179256357E-02       5    4    1         0.1158365170E+00      0.3195661512E+00
          0                 2           2             5    4     1      -0.2119824240E-03       5    4    1        -0.1158366605E-01      0.3194946474E-01
          0                 3           1             5    4     1       0.1443521974E-04       5    4    1         0.8108568304E-03      0.2235872331E-02

    ------------------------------------------------
       NWT REQUIRED            3 OUTER ITERATIONS 
       AND A TOTAL OF          5 INNER ITERATIONS.
    ------------------------------------------------

 NO OUTPUT CONTROL FOR STRESS PERIOD    2   TIME STEP   27
 
 SOLVING FOR HEAD 
                                                   Max.-Head-Change                         Max.-Flux-Residual
  Residual-Control   Outer-Iter.   Inner-Iter.     Column Row Layer    Maximum-Head-Change  Column Row Layer    Maximum-Flux-Residual          L2-NORM 
          0                 1           2             5    4     1       0.2131225068E-02       5    4    1         0.1132144787E+00      0.3161253915E+00
          0                 2           2             5    4     1      -0.2073102767E-03       5    4    1        -0.1132146134E-01      0.3160621951E-01
          0                 3           1             5    4     1       0.1411706459E-04       5    4    1         0.7925025059E-03      0.2211814484E-02

    ------------------------------------------------
       NWT REQUIRED            3 OUTER ITERATIONS 
       AND A TOTAL OF          5 INNER ITERATIONS.
    ------------------------------------------------

 NO OUTPUT CONTROL FOR STRESS PERIOD    2   TIME STEP   28
 
 SOLVING FOR HEAD 
                                                   Max.-Head-Change                         Max.-Flux-Residual
  Residual-Control   Outer-Iter.   Inner-Iter.     Column Row Layer    Maximum-Head-Change  Column Row Layer    Maximum-Flux-Residual          L2-NORM 
          0                 1           2             5    4     1       0.2085111076E-02       5    4    1         0.1106979657E+00      0.3128491516E+00
          0                 2           2             5    4     1      -0.2028246317E-03       5    4    1        -0.1106980924E-01      0.3127911464E-01
          0                 3           1             5    4     1       0.1381160957E-04       5    4    1         0.7748868904E-03      0.2188973678E-02

    ------------------------------------------------
       NWT REQUIRED            3 OUTER ITERATIONS 
       AND A TOTAL OF          5 INNER ITERATIONS.
    ------------------------------------------------

 NO OUTPUT CONTROL FOR STRESS PERIOD    2   TIME STEP   29
 
 SOLVING FOR HEAD 
                                                   Max.-Head-Change                         Max.-Flux-Residual
  Residual-Control   Outer-Iter.   Inner-Iter.     Column Row Layer    Maximum-Head-Change  Column Row Layer    Maximum-Flux-Residual          L2-NORM 
          0                 1           2             5    4     1       0.2041517049E-02       5    4    1         0.1083201072E+00      0.3097361467E+00
          0                 2           2             5    4     1      -0.1985841105E-03       5    4    1        -0.1083202265E-01      0.3096867111E-01
          0                 3           1             5    4     1       0.1352284593E-04       5    4    1         0.7582417979E-03      0.2167358548E-02

    ------------------------------------------------
       NWT REQUIRED            3 OUTER ITERATIONS 
       AND A TOTAL OF          5 INNER ITERATIONS.
    ------------------------------------------------

 NO OUTPUT CONTROL FOR STRESS PERIOD    2   TIME STEP   30



 STREAM LISTING     PERIOD      2   STEP       30

 LAYER ROW COL. STREAM  RCH.  FLOW INTO     FLOW TO   FLOW OUT OF   OVRLND.     DIRECT     STREAM       STREAM     STREAM     STREAM   STREAMBED  STREAMBED
                SEG.NO.  NO.  STRM. RCH.    AQUIFER    STRM. RCH.    RUNOFF     PRECIP       ET          HEAD       DEPTH      WIDTH   CONDCTNC.   GRADIENT

   1    1    1     1     1    8.2500E+00  1.3178E-01   8.1182E+00  0.000E+00  0.000E+00  0.000E+00  1.09389E+03  8.424E-01  7.622E+00  3.430E-02  1.281E+00
   1    2    2     1     2    8.1182E+00  2.0240E-01   7.9158E+00  0.000E+00  0.000E+00  0.000E+00  1.08890E+03  8.367E-01  7.536E+00  5.276E-02  1.279E+00
   1    3    3     1     3    7.9158E+00  1.7099E-01   7.7448E+00  0.000E+00  0.000E+00  0.000E+00  1.08325E+03  8.302E-01  7.440E+00  4.464E-02  1.277E+00
   1    3    4     1     4    7.7448E+00  1.5612E-01   7.5887E+00  0.000E+00  0.000E+00  0.000E+00  1.07823E+03  8.244E-01  7.355E+00  4.082E-02  1.275E+00
   1    4    5     2     1    5.5887E+00  2.7178E-01   5.3169E+00  0.000E+00  0.000E+00  0.000E+00  1.07242E+03  4.843E-01  1.200E+01  7.800E-02  1.161E+00
   1    5    6     2     2    5.3169E+00  2.0828E-01   5.1087E+00  0.000E+00  0.000E+00  0.000E+00  1.06698E+03  4.714E-01  1.200E+01  6.000E-02  1.157E+00
   1    6    6     2     3    5.1087E+00  2.0760E-01   4.9010E+00  0.000E+00  0.000E+00  0.000E+00  1.06225E+03  4.600E-01  1.200E+01  6.000E-02  1.153E+00
   1    7    6     2     4    4.9010E+00  2.0691E-01   4.6941E+00  0.000E+00  0.000E+00  0.000E+00  1.05752E+03  4.485E-01  1.200E+01  6.000E-02  1.149E+00
   1    8    6     2     5    4.6941E+00  2.0621E-01   4.4879E+00  0.000E+00  0.000E+00  0.000E+00  1.05280E+03  4.368E-01  1.200E+01  6.000E-02  1.146E+00
   1    3    5     3     1    2.0000E+00  2.8252E-01   1.7175E+00  0.000E+00  0.000E+00  0.000E+00  1.07555E+03  1.909E+00  9.636E+00  7.227E-02  1.955E+00
   1    3    6     3     2    1.7175E+00  2.4905E-01   1.4684E+00  0.000E+00  0.000E+00  0.000E+00  1.07264E+03  1.727E+00  8.909E+00  6.682E-02  1.864E+00
   1    3    7     3     3    1.4684E+00  1.9718E-01   1.2712E+00  0.000E+00  0.000E+00  0.000E+00  1.06987E+03  1.555E+00  8.218E+00  5.547E-02  1.777E+00
   1    4    8     3     4    1.2712E+00  2.2567E-01   1.0456E+00  0.000E+00  0.000E+00  0.000E+00  1.06682E+03  1.364E+00  7.455E+00  6.709E-02  1.682E+00
   1    5    8     3     5    1.0456E+00  1.5790E-01   8.8768E-01  0.000E+00  0.000E+00  0.000E+00  1.06362E+03  1.164E+00  6.655E+00  4.991E-02  1.582E+00
   1    6    8     3     6    8.8768E-01  5.5980E-02   8.3170E-01  0.000E+00  0.000E+00  0.000E+00  1.06158E+03  1.036E+00  6.145E+00  1.844E-02  1.518E+00
   1    5   10     4     1    1.0000E+01  9.0919E-02   9.9091E+00  0.000E+00  0.000E+00  0.000E+00  1.07836E+03  6.368E-01  1.000E+01  2.500E-02  1.212E+00
   1    5    9     4     2    9.9091E+00  1.8158E-01   9.7275E+00  0.000E+00  0.000E+00  0.000E+00  1.07154E+03  6.315E-01  1.000E+01  5.000E-02  1.211E+00
   1    6    8     4     3    9.7275E+00  1.2689E-01   9.6006E+00  0.000E+00  0.000E+00  0.000E+00  1.06381E+03  6.256E-01  1.000E+01  3.500E-02  1.209E+00
   1    6    8     5     1    1.0432E+01  2.2686E-01   1.0205E+01  0.000E+00  0.000E+00  0.000E+00  1.05868E+03  6.790E-01  1.542E+01  6.166E-02  1.226E+00
   1    7    7     5     2    1.0205E+01  2.7894E-01   9.9265E+00  0.000E+00  0.000E+00  0.000E+00  1.05417E+03  6.732E-01  1.519E+01  7.594E-02  1.224E+00
   1    8    7     5     3    9.9265E+00  1.9221E-01   9.7343E+00  0.000E+00  0.000E+00  0.000E+00  1.04992E+03  6.676E-01  1.497E+01  5.241E-02  1.223E+00
   1    8    6     5     4    9.7343E+00  1.3577E-01   9.5985E+00  0.000E+00  0.000E+00  0.000E+00  1.04691E+03  6.637E-01  1.482E+01  3.706E-02  1.221E+00
   1    9    6     6     1    1.4086E+01  2.3167E-01   1.3855E+01  0.000E+00  0.000E+00  0.000E+00  1.04359E+03  8.612E-01  1.200E+01  6.000E-02  1.287E+00
   1   10    7     6     2    1.3855E+01  2.3116E-01   1.3624E+01  0.000E+00  0.000E+00  0.000E+00  1.03903E+03  8.526E-01  1.200E+01  6.000E-02  1.284E+00
   1   11    7     6     3    1.3624E+01  2.3064E-01   1.3393E+01  0.000E+00  0.000E+00  0.000E+00  1.03448E+03  8.440E-01  1.200E+01  6.000E-02  1.281E+00
   1   12    7     6     4    1.3393E+01  2.3012E-01   1.3163E+01  0.000E+00  0.000E+00  0.000E+00  1.02993E+03  8.353E-01  1.200E+01  6.000E-02  1.278E+00
   1   13    7     6     5    1.3163E+01 -2.0977E-02   1.3184E+01  0.000E+00  0.000E+00  0.000E+00  1.02674E+03  8.314E-01  1.200E+01  2.400E-01 -2.913E-02
   1   14    9     7     1    1.5000E+02  1.3658E+00   1.4863E+02  0.000E+00  0.000E+00  0.000E+00  1.03987E+03  2.288E+00  5.529E+01  5.593E-01  8.140E-01
   1   13    8     7     2    1.4863E+02  1.9203E+00   1.4671E+02  0.000E+00  0.000E+00  0.000E+00  1.03478E+03  2.279E+00  5.526E+01  6.148E-01  1.041E+00
   1   13    7     7     3    1.4671E+02  1.5976E+00   1.4512E+02  0.000E+00  0.000E+00  0.000E+00  1.02969E+03  2.270E+00  5.521E+01  5.584E-01  9.537E-01
   1   13    6     8     1    1.5830E+02  9.7214E-01   1.5733E+02  0.000E+00  0.000E+00  0.000E+00  1.02475E+03  2.871E+00  4.163E+01  4.242E-01  7.639E-01
   1   13    5     8     2    1.5733E+02  2.2507E-01   1.5710E+02  0.000E+00  0.000E+00  0.000E+00  1.01849E+03  2.867E+00  4.157E+01  4.236E-01  1.771E-01
   1   13    4     8     3    1.5710E+02 -2.2709E+00   1.5937E+02  0.000E+00  0.000E+00  0.000E+00  1.01225E+03  2.874E+00  4.167E+01  4.246E+00 -1.783E-01
   1   13    3     8     4    1.5937E+02 -3.5514E+00   1.6293E+02  0.000E+00  0.000E+00  0.000E+00  1.00602E+03  2.894E+00  4.196E+01  4.276E+00 -2.769E-01
   1   13    2     8     5    1.6293E+02 -2.5395E+00   1.6546E+02  0.000E+00  0.000E+00  0.000E+00  9.99789E+02  2.914E+00  4.225E+01  4.306E+00 -1.966E-01
   1   13    1     8     6    1.6546E+02 -1.9547E+00   1.6742E+02  0.000E+00  0.000E+00  0.000E+00  9.94804E+02  2.929E+00  4.247E+01  2.597E+00 -2.509E-01
   1    8    6     9     1    0.0000E+00  0.0000E+00   0.0000E+00  0.000E+00  0.000E+00  0.000E+00  1.07875E+03  0.000E+00  4.000E+00  0.000E+00  1.000E+00
   1    8    5     9     2    0.0000E+00  0.0000E+00   0.0000E+00  0.000E+00  0.000E+00  0.000E+00  1.07825E+03  0.000E+00  4.000E+00  0.000E+00  1.000E+00





UNSATURATED ZONE PACKAGE VOLUMETRIC BUDGET FOR  TIME STEP    30 STRESS PERIOD    2
  ------------------------------------------------------------------------------



     CUMULATIVE VOLUMES      L**3       RATES FOR THIS TIME STEP      L**3/T
     ------------------                 ------------------------

           IN:                                      IN:
           ---                                      ---
        INFILTRATION =     2302148.8727          INFILTRATION =           0.8475

          OUT:                                     OUT:
          ----                                     ----
              UZF ET =     1972485.7128                UZF ET =           0.7500
        UZF RECHARGE =       73224.0000          UZF RECHARGE =       0.0000E+00

            IN - OUT =      256439.1600              IN - OUT =       9.7500E-02

          STORAGE:                                 STORAGE:
          --------                                 --------
      STORAGE CHANGE =      256439.1819        STORAGE CHANGE =       9.7500E-02

 PERCENT DISCREPANCY IS DIFFERENCE BETWEEN IN-OUT MINUS CHANGE IN STORAGE
 DIVIDED BY THE AVERAGE OF IN AND OUT TIMES 100

 PERCENT DISCREPANCY =          -0.00     PERCENT DISCREPANCY =           0.00






1
  VOLUMETRIC BUDGET FOR AGRICULTURAL FIELDS AT  END OF TIME STEP   30, STRESS PERIOD   2
  ------------------------------------------------------------------------------

     CUMULATIVE VOLUMES      L**3       RATES FOR THIS TIME STEP      L**3/T
     ------------------                 ------------------------

           IN:                                      IN:
           ---                                      ---
               AG WELLS  =           0.0000                 AG WELLS  =           0.0000
      DIVERSION SEGMENTS =           0.0000        DIVERSION SEGMENTS =           0.0000
           GW IRRIGATION =           0.0000             GW IRRIGATION =           0.0000
           SW IRRIGATION =           0.0000             SW IRRIGATION =           0.0000
        SYSTEM LOSSES GW =           0.0000          SYSTEM LOSSES GW =           0.0000
        SYSTEM LOSSES SW =           0.0000          SYSTEM LOSSES SW =           0.0000

                TOTAL IN =           0.0000                  TOTAL IN =           0.0000

          OUT:                                     OUT:
          ----                                     ----
               AG WELLS  =           0.0000                 AG WELLS  =           0.0000
      DIVERSION SEGMENTS =           0.0000        DIVERSION SEGMENTS =           0.0000
           GW IRRIGATION =           0.0000             GW IRRIGATION =           0.0000
           SW IRRIGATION =           0.0000             SW IRRIGATION =           0.0000
        SYSTEM LOSSES GW =           0.0000          SYSTEM LOSSES GW =           0.0000
        SYSTEM LOSSES SW =           0.0000          SYSTEM LOSSES SW =           0.0000

               TOTAL OUT =           0.0000                 TOTAL OUT =           0.0000

                IN - OUT =           0.0000                  IN - OUT =           0.0000

     PERCENT DISCREPANCY =           0.00         PERCENT DISCREPANCY =           0.00



1
  VOLUMETRIC BUDGET FOR ENTIRE MODEL AT END OF TIME STEP   30, STRESS PERIOD   2
  ------------------------------------------------------------------------------

     CUMULATIVE VOLUMES      L**3       RATES FOR THIS TIME STEP      L**3/T
     ------------------                 ------------------------

           IN:                                      IN:
           ---                                      ---
             STORAGE     =     1698293.2500               STORAGE     =           0.5858
       CONSTANT HEAD     =           0.0000         CONSTANT HEAD     =           0.0000
     HEAD DEP BOUNDS     =      781723.8750       HEAD DEP BOUNDS     =           0.2878
      STREAM LEAKAGE     =    30218964.0000        STREAM LEAKAGE     =          11.1681
        UZF RECHARGE     =       73223.9531          UZF RECHARGE     =           0.0000
               GW ET     =           0.0000                 GW ET     =           0.0000
     SURFACE LEAKAGE     =           0.0000       SURFACE LEAKAGE     =           0.0000
           AG WELLS      =           0.0000             AG WELLS      =           0.0000

                TOTAL IN =    32772204.0000                  TOTAL IN =          12.0417

          OUT:                                     OUT:
          ----                                     ----
             STORAGE     =     4124340.2500               STORAGE     =           1.4173
       CONSTANT HEAD     =           0.0000         CONSTANT HEAD     =           0.0000
     HEAD DEP BOUNDS     =      779352.1875       HEAD DEP BOUNDS     =           0.2872
      STREAM LEAKAGE     =    27869200.0000        STREAM LEAKAGE     =          10.3374
        UZF RECHARGE     =           0.0000          UZF RECHARGE     =           0.0000
               GW ET     =           0.0000                 GW ET     =           0.0000
     SURFACE LEAKAGE     =           0.0000       SURFACE LEAKAGE     =           0.0000
           AG WELLS      =           0.0000             AG WELLS      =           0.0000

               TOTAL OUT =    32772892.0000                 TOTAL OUT =          12.0419

                IN - OUT =        -688.0000                  IN - OUT =      -2.3460E-04

     PERCENT DISCREPANCY =          -0.00         PERCENT DISCREPANCY =          -0.00






         TIME SUMMARY AT END OF TIME STEP   30 IN STRESS PERIOD    2
                    SECONDS     MINUTES      HOURS       DAYS        YEARS
                    -----------------------------------------------------------
   TIME STEP LENGTH  87667.      1461.1      24.352      1.0147     2.77799E-03
 STRESS PERIOD TIME 2.63000E+06  43833.      730.56      30.440     8.33397E-02
         TOTAL TIME 2.71640E+06  45273.      754.56      31.440     8.60775E-02
1
1
                            STRESS PERIOD NO.    3, LENGTH =   2630000.    
                            -----------------------------------------------

                              NUMBER OF TIME STEPS =    30

                               MULTIPLIER FOR DELT =     1.000

                            INITIAL TIME STEP SIZE =   87666.66    

 REUSING NON-PARAMETER GHB CELLS FROM LAST STRESS PERIOD

      2 GHB CELLS

 REUSING STREAM SEGMENT DATA FROM LAST STRESS PERIOD



            AREAL INFILTRATION RATE
 READING ON UNIT   19 WITH FORMAT: (FREE)              

            1           2           3           4           5           6           7           8           9          10
 ........................................................................................................................
   1   1.0000E-10  2.0000E-10   0.000       0.000       0.000       0.000       0.000       0.000       0.000       0.000    
   2   2.0000E-10  1.0000E-10  2.0000E-10   0.000       0.000      8.0000E-10  8.0000E-10  5.0000E-10   0.000       0.000    
   3    0.000      5.0000E-10  1.0000E-10  1.0000E-10  8.0000E-10  8.0000E-10  5.0000E-10  5.0000E-10   0.000       0.000    
   4   8.0000E-10  5.0000E-10  1.0000E-10  1.0000E-10  1.0000E-10  1.0000E-10  1.0000E-10  1.0000E-10  2.0000E-10   0.000    
   5   8.0000E-10  5.0000E-10  1.0000E-10  1.0000E-10  1.0000E-10  1.0000E-10  1.0000E-10  1.0000E-10  1.0000E-10  1.0000E-10
   6   8.0000E-10  5.0000E-10  5.0000E-10  2.0000E-10  2.0000E-10  1.0000E-10  1.0000E-10  1.0000E-10  1.0000E-10  5.0000E-10
   7   8.0000E-10  5.0000E-10  5.0000E-10  2.0000E-10  2.0000E-10  1.0000E-10  1.0000E-10  2.0000E-10  2.0000E-10   0.000    
   8    0.000      5.0000E-10  5.0000E-10  2.0000E-10  2.0000E-10  1.0000E-10  1.0000E-10  2.0000E-10  5.0000E-10   0.000    
   9    0.000      5.0000E-10  5.0000E-10  2.0000E-10  2.0000E-10  1.0000E-10  1.0000E-10  2.0000E-10  5.0000E-10   0.000    
  10    0.000      5.0000E-10  5.0000E-10  2.0000E-10  2.0000E-10  1.0000E-10  1.0000E-10  2.0000E-10  5.0000E-10  8.0000E-10
  11    0.000      1.0000E-10  1.0000E-10  1.0000E-10  1.0000E-10  1.0000E-10  1.0000E-10  2.0000E-10  5.0000E-10   0.000    
  12   1.0000E-10  1.0000E-10  1.0000E-10  1.0000E-10  1.0000E-10  1.0000E-10  1.0000E-10  1.0000E-10  2.0000E-10   0.000    
  13   1.0000E-10  1.0000E-10  2.0000E-10  2.0000E-10  2.0000E-10  2.0000E-10  2.0000E-10  1.0000E-10  1.0000E-10   0.000    
  14    0.000      2.0000E-10  5.0000E-10  5.0000E-10  5.0000E-10  5.0000E-10  5.0000E-10  2.0000E-10  1.0000E-10   0.000    
  15    0.000       0.000      8.0000E-10  8.0000E-10  8.0000E-10  8.0000E-10   0.000       0.000       0.000       0.000    

                  ET RATE =  5.000000E-10

 USING ET EXTINCTION DEPTH FROM PREVIOUS STRESS PERIOD. CURRENT PERIOD IS:       3

 USING EXTINCTION WATER CONTENT FROM PREVIOUS STRESS PERIOD. CURRENT PERIOD IS:       3

 USING AIR ENTRY PRESSURE FROM PREVIOUS STRESS PERIOD. CURRENT PERIOD IS:       3

 USING ROOT PRESSURE HEAD FROM PREVIOUS STRESS PERIOD. CURRENT PERIOD IS:       3

 USING ROOT ACTIVITY FROM PREVIOUS STRESS PERIOD. CURRENT PERIOD IS:       3

 PROCESSING AG STRESS PERIOD DATA

 READING AG STRESS PERIOD DATA

 READING IRRIGATION SEGMENT

 READING IRRIGATION WELL

 READING SUPPLEMENTAL WELL

 END PROCESSING AG STRESS PERIOD DATA OPTIONS
 
 SOLVING FOR HEAD 
                                                   Max.-Head-Change                         Max.-Flux-Residual
  Residual-Control   Outer-Iter.   Inner-Iter.     Column Row Layer    Maximum-Head-Change  Column Row Layer    Maximum-Flux-Residual          L2-NORM 
          0                 1           2             2    2     1       0.2525011357E-02       2    2    1         0.1319005112E+00      0.4039561040E+00
          0                 2           2             2    2     1      -0.2456150129E-03       2    2    1        -0.1319006855E-01      0.4181694327E-01
          0                 3           1             2    2     1       0.1672546936E-04       2    2    1         0.9233050379E-03      0.2906724711E-02

    ------------------------------------------------
       NWT REQUIRED            3 OUTER ITERATIONS 
       AND A TOTAL OF          5 INNER ITERATIONS.
    ------------------------------------------------

 NO OUTPUT CONTROL FOR STRESS PERIOD    3   TIME STEP    1
 
 SOLVING FOR HEAD 
                                                   Max.-Head-Change                         Max.-Flux-Residual
  Residual-Control   Outer-Iter.   Inner-Iter.     Column Row Layer    Maximum-Head-Change  Column Row Layer    Maximum-Flux-Residual          L2-NORM 
          0                 1           2             2    2     1       0.3324231131E-02       2    2    1         0.1736614038E+00      0.5146754142E+00
          0                 2           2             2    2     1      -0.3233575028E-03       2    2    1        -0.1736617106E-01      0.5102024440E-01
          0                 3           1             2    2     1       0.2201944266E-04       2    2    1         0.1215632199E-02      0.3530081504E-02

    ------------------------------------------------
       NWT REQUIRED            3 OUTER ITERATIONS 
       AND A TOTAL OF          5 INNER ITERATIONS.
    ------------------------------------------------

 NO OUTPUT CONTROL FOR STRESS PERIOD    3   TIME STEP    2
 
 SOLVING FOR HEAD 
                                                   Max.-Head-Change                         Max.-Flux-Residual
  Residual-Control   Outer-Iter.   Inner-Iter.     Column Row Layer    Maximum-Head-Change  Column Row Layer    Maximum-Flux-Residual          L2-NORM 
          0                 1           2             2    2     1       0.3301480467E-02       2    2    1         0.1724651001E+00      0.4998439178E+00
          0                 2           2             2    2     1      -0.3211444747E-03       2    2    1        -0.1724654009E-01      0.4958929944E-01
          0                 3           1             2    2     1       0.2186874379E-04       2    2    1         0.1207258049E-02      0.3434935461E-02

    ------------------------------------------------
       NWT REQUIRED            3 OUTER ITERATIONS 
       AND A TOTAL OF          5 INNER ITERATIONS.
    ------------------------------------------------

 NO OUTPUT CONTROL FOR STRESS PERIOD    3   TIME STEP    3
 
 SOLVING FOR HEAD 
                                                   Max.-Head-Change                         Max.-Flux-Residual
  Residual-Control   Outer-Iter.   Inner-Iter.     Column Row Layer    Maximum-Head-Change  Column Row Layer    Maximum-Flux-Residual          L2-NORM 
          0                 1           2             2    2     1       0.3279131818E-02       2    2    1         0.1712899373E+00      0.4865714186E+00
          0                 2           2             2    2     1      -0.3189705518E-03       2    2    1        -0.1712902324E-01      0.4830887629E-01
          0                 3           1             2    2     1       0.2172070774E-04       2    2    1         0.1199031861E-02      0.3349499608E-02

    ------------------------------------------------
       NWT REQUIRED            3 OUTER ITERATIONS 
       AND A TOTAL OF          5 INNER ITERATIONS.
    ------------------------------------------------

 NO OUTPUT CONTROL FOR STRESS PERIOD    3   TIME STEP    4
 
 SOLVING FOR HEAD 
                                                   Max.-Head-Change                         Max.-Flux-Residual
  Residual-Control   Outer-Iter.   Inner-Iter.     Column Row Layer    Maximum-Head-Change  Column Row Layer    Maximum-Flux-Residual          L2-NORM 
          0                 1           2             2    2     1       0.3257010121E-02       2    2    1         0.1701267478E+00      0.4746967975E+00
          0                 2           2             2    2     1      -0.3168187054E-03       2    2    1        -0.1701270371E-01      0.4716328635E-01
          0                 3           1             2    2     1       0.2157417503E-04       2    2    1         0.1190889507E-02      0.3270890237E-02

    ------------------------------------------------
       NWT REQUIRED            3 OUTER ITERATIONS 
       AND A TOTAL OF          5 INNER ITERATIONS.
    ------------------------------------------------

 NO OUTPUT CONTROL FOR STRESS PERIOD    3   TIME STEP    5
 
 SOLVING FOR HEAD 
                                                   Max.-Head-Change                         Max.-Flux-Residual
  Residual-Control   Outer-Iter.   Inner-Iter.     Column Row Layer    Maximum-Head-Change  Column Row Layer    Maximum-Flux-Residual          L2-NORM 
          0                 1           2             2    2     1       0.3235280851E-02       2    2    1         0.1689841965E+00      0.4640265425E+00
          0                 2           2             2    2     1      -0.3147050320E-03       2    2    1        -0.1689844808E-01      0.4613312208E-01
          0                 3           1             2    2     1       0.2143024171E-04       2    2    1         0.1182891598E-02      0.3204696499E-02

    ------------------------------------------------
       NWT REQUIRED            3 OUTER ITERATIONS 
       AND A TOTAL OF          5 INNER ITERATIONS.
    ------------------------------------------------

 NO OUTPUT CONTROL FOR STRESS PERIOD    3   TIME STEP    6
 
 SOLVING FOR HEAD 
                                                   Max.-Head-Change                         Max.-Flux-Residual
  Residual-Control   Outer-Iter.   Inner-Iter.     Column Row Layer    Maximum-Head-Change  Column Row Layer    Maximum-Flux-Residual          L2-NORM 
          0                 1           2             2    2     1       0.3213768742E-02       2    2    1         0.1678531209E+00      0.4544395675E+00
          0                 2           2             2    2     1      -0.3126124822E-03       2    2    1        -0.1678533996E-01      0.4520717740E-01
          0                 3           1             2    2     1       0.2128774736E-04       2    2    1         0.1174974052E-02      0.3142849220E-02

    ------------------------------------------------
       NWT REQUIRED            3 OUTER ITERATIONS 
       AND A TOTAL OF          5 INNER ITERATIONS.
    ------------------------------------------------

 NO OUTPUT CONTROL FOR STRESS PERIOD    3   TIME STEP    7
 
 SOLVING FOR HEAD 
                                                   Max.-Head-Change                         Max.-Flux-Residual
  Residual-Control   Outer-Iter.   Inner-Iter.     Column Row Layer    Maximum-Head-Change  Column Row Layer    Maximum-Flux-Residual          L2-NORM 
          0                 1           2             2    2     1       0.3192554582E-02       2    2    1         0.1667377406E+00      0.4457937575E+00
          0                 2           2             2    2     1      -0.3105489156E-03       2    2    1        -0.1667380143E-01      0.4437312582E-01
          0                 3           1             2    2     1       0.2114722592E-04       2    2    1         0.1167166361E-02      0.3087989836E-02

    ------------------------------------------------
       NWT REQUIRED            3 OUTER ITERATIONS 
       AND A TOTAL OF          5 INNER ITERATIONS.
    ------------------------------------------------

 NO OUTPUT CONTROL FOR STRESS PERIOD    3   TIME STEP    8
 
 SOLVING FOR HEAD 
                                                   Max.-Head-Change                         Max.-Flux-Residual
  Residual-Control   Outer-Iter.   Inner-Iter.     Column Row Layer    Maximum-Head-Change  Column Row Layer    Maximum-Flux-Residual          L2-NORM 
          0                 1           2             2    2     1       0.3171548839E-02       2    2    1         0.1656333726E+00      0.4379820131E+00
          0                 2           2             2    2     1      -0.3085056218E-03       2    2    1        -0.1656336413E-01      0.4361531313E-01
          0                 3           1             2    2     1       0.2100808546E-04       2    2    1         0.1159435746E-02      0.3036168713E-02

    ------------------------------------------------
       NWT REQUIRED            3 OUTER ITERATIONS 
       AND A TOTAL OF          5 INNER ITERATIONS.
    ------------------------------------------------

 NO OUTPUT CONTROL FOR STRESS PERIOD    3   TIME STEP    9
 
 SOLVING FOR HEAD 
                                                   Max.-Head-Change                         Max.-Flux-Residual
  Residual-Control   Outer-Iter.   Inner-Iter.     Column Row Layer    Maximum-Head-Change  Column Row Layer    Maximum-Flux-Residual          L2-NORM 
          0                 1           2             2    2     1       0.3150918025E-02       2    2    1         0.1645486827E+00      0.4309014473E+00
          0                 2           2             2    2     1      -0.3064987986E-03       2    2    1        -0.1645489464E-01      0.4292970047E-01
          0                 3           1             2    2     1       0.2087142819E-04       2    2    1         0.1151842872E-02      0.2990345713E-02

    ------------------------------------------------
       NWT REQUIRED            3 OUTER ITERATIONS 
       AND A TOTAL OF          5 INNER ITERATIONS.
    ------------------------------------------------

 NO OUTPUT CONTROL FOR STRESS PERIOD    3   TIME STEP   10
 
 SOLVING FOR HEAD 
                                                   Max.-Head-Change                         Max.-Flux-Residual
  Residual-Control   Outer-Iter.   Inner-Iter.     Column Row Layer    Maximum-Head-Change  Column Row Layer    Maximum-Flux-Residual          L2-NORM 
          0                 1           2             2    2     1       0.3130486817E-02       2    2    1         0.1634745604E+00      0.4244596632E+00
          0                 2           2             2    2     1      -0.3045113916E-03       2    2    1        -0.1634748192E-01      0.4230497152E-01
          0                 3           1             2    2     1       0.2073609344E-04       2    2    1         0.1144323989E-02      0.2948688901E-02

    ------------------------------------------------
       NWT REQUIRED            3 OUTER ITERATIONS 
       AND A TOTAL OF          5 INNER ITERATIONS.
    ------------------------------------------------

 NO OUTPUT CONTROL FOR STRESS PERIOD    3   TIME STEP   11
 
 SOLVING FOR HEAD 
                                                   Max.-Head-Change                         Max.-Flux-Residual
  Residual-Control   Outer-Iter.   Inner-Iter.     Column Row Layer    Maximum-Head-Change  Column Row Layer    Maximum-Flux-Residual          L2-NORM 
          0                 1           2             2    2     1       0.3110421577E-02       2    2    1         0.1624196598E+00      0.4185889141E+00
          0                 2           2             2    2     1      -0.3025595840E-03       2    2    1        -0.1624199138E-01      0.4173522698E-01
          0                 3           1             2    2     1       0.2060318246E-04       2    2    1         0.1136939658E-02      0.2910188975E-02

    ------------------------------------------------
       NWT REQUIRED            3 OUTER ITERATIONS 
       AND A TOTAL OF          5 INNER ITERATIONS.
    ------------------------------------------------

 NO OUTPUT CONTROL FOR STRESS PERIOD    3   TIME STEP   12
 
 SOLVING FOR HEAD 
                                                   Max.-Head-Change                         Max.-Flux-Residual
  Residual-Control   Outer-Iter.   Inner-Iter.     Column Row Layer    Maximum-Head-Change  Column Row Layer    Maximum-Flux-Residual          L2-NORM 
          0                 1           2             2    2     1       0.3090547437E-02       2    2    1         0.1613748618E+00      0.4132170528E+00
          0                 2           2             2    2     1      -0.3006263653E-03       2    2    1        -0.1613751113E-01      0.4121296719E-01
          0                 3           1             2    2     1       0.2047153721E-04       2    2    1         0.1129626030E-02      0.2874981966E-02

    ------------------------------------------------
       NWT REQUIRED            3 OUTER ITERATIONS 
       AND A TOTAL OF          5 INNER ITERATIONS.
    ------------------------------------------------

 NO OUTPUT CONTROL FOR STRESS PERIOD    3   TIME STEP   13
 
 SOLVING FOR HEAD 
                                                   Max.-Head-Change                         Max.-Flux-Residual
  Residual-Control   Outer-Iter.   Inner-Iter.     Column Row Layer    Maximum-Head-Change  Column Row Layer    Maximum-Flux-Residual          L2-NORM 
          0                 1           2             2    2     1       0.3070945672E-02       2    2    1         0.1603444083E+00      0.4082878642E+00
          0                 2           2             2    2     1      -0.2987196410E-03       2    2    1        -0.1603446533E-01      0.4073316193E-01
          0                 3           1             2    2     1       0.2034169636E-04       2    2    1         0.1122412824E-02      0.2842122409E-02

    ------------------------------------------------
       NWT REQUIRED            3 OUTER ITERATIONS 
       AND A TOTAL OF          5 INNER ITERATIONS.
    ------------------------------------------------

 NO OUTPUT CONTROL FOR STRESS PERIOD    3   TIME STEP   14
 
 SOLVING FOR HEAD 
                                                   Max.-Head-Change                         Max.-Flux-Residual
  Residual-Control   Outer-Iter.   Inner-Iter.     Column Row Layer    Maximum-Head-Change  Column Row Layer    Maximum-Flux-Residual          L2-NORM 
          0                 1           2             2    2     1       0.3051611998E-02       2    2    1         0.1593280771E+00      0.4037432855E+00
          0                 2           2             2    2     1      -0.2968389952E-03       2    2    1        -0.1593283178E-01      0.4029055436E-01
          0                 3           1             2    2     1       0.2021363175E-04       2    2    1         0.1115298474E-02      0.2812665501E-02

    ------------------------------------------------
       NWT REQUIRED            3 OUTER ITERATIONS 
       AND A TOTAL OF          5 INNER ITERATIONS.
    ------------------------------------------------

 NO OUTPUT CONTROL FOR STRESS PERIOD    3   TIME STEP   15
 
 SOLVING FOR HEAD 
                                                   Max.-Head-Change                         Max.-Flux-Residual
  Residual-Control   Outer-Iter.   Inner-Iter.     Column Row Layer    Maximum-Head-Change  Column Row Layer    Maximum-Flux-Residual          L2-NORM 
          0                 1           2             2    2     1       0.3032542649E-02       2    2    1         0.1583256463E+00      0.3995411777E+00
          0                 2           2             2    2     1      -0.2949840610E-03       2    2    1        -0.1583258826E-01      0.3988016463E-01
          0                 3           1             2    2     1       0.2008731757E-04       2    2    1         0.1108281427E-02      0.2784963619E-02

    ------------------------------------------------
       NWT REQUIRED            3 OUTER ITERATIONS 
       AND A TOTAL OF          5 INNER ITERATIONS.
    ------------------------------------------------

 NO OUTPUT CONTROL FOR STRESS PERIOD    3   TIME STEP   16
 
 SOLVING FOR HEAD 
                                                   Max.-Head-Change                         Max.-Flux-Residual
  Residual-Control   Outer-Iter.   Inner-Iter.     Column Row Layer    Maximum-Head-Change  Column Row Layer    Maximum-Flux-Residual          L2-NORM 
          0                 1           2             2    2     1       0.3013648210E-02       2    2    1         0.1573324837E+00      0.3956471269E+00
          0                 2           2             2    2     1      -0.2931461416E-03       2    2    1        -0.1573327161E-01      0.3949936634E-01
          0                 3           1             2    2     1       0.1996216214E-04       2    2    1         0.1101329276E-02      0.2758858441E-02

    ------------------------------------------------
       NWT REQUIRED            3 OUTER ITERATIONS 
       AND A TOTAL OF          5 INNER ITERATIONS.
    ------------------------------------------------

 NO OUTPUT CONTROL FOR STRESS PERIOD    3   TIME STEP   17
 
 SOLVING FOR HEAD 
                                                   Max.-Head-Change                         Max.-Flux-Residual
  Residual-Control   Outer-Iter.   Inner-Iter.     Column Row Layer    Maximum-Head-Change  Column Row Layer    Maximum-Flux-Residual          L2-NORM 
          0                 1           2             2    2     1       0.2995086685E-02       2    2    1         0.1563567839E+00      0.3920195151E+00
          0                 2           2             2    2     1      -0.2913406047E-03       2    2    1        -0.1563570120E-01      0.3914490014E-01
          0                 3           1             2    2     1       0.1983921179E-04       2    2    1         0.1094499337E-02      0.2735070227E-02

    ------------------------------------------------
       NWT REQUIRED            3 OUTER ITERATIONS 
       AND A TOTAL OF          5 INNER ITERATIONS.
    ------------------------------------------------

 NO OUTPUT CONTROL FOR STRESS PERIOD    3   TIME STEP   18
 
 SOLVING FOR HEAD 
                                                   Max.-Head-Change                         Max.-Flux-Residual
  Residual-Control   Outer-Iter.   Inner-Iter.     Column Row Layer    Maximum-Head-Change  Column Row Layer    Maximum-Flux-Residual          L2-NORM 
          0                 1           2             2    2     1       0.2976701687E-02       2    2    1         0.1553904308E+00      0.3886479529E+00
          0                 2           2             2    2     1      -0.2895522397E-03       2    2    1        -0.1553906548E-01      0.3881409150E-01
          0                 3           1             2    2     1       0.1971743109E-04       2    2    1         0.1087734852E-02      0.2712477527E-02

    ------------------------------------------------
       NWT REQUIRED            3 OUTER ITERATIONS 
       AND A TOTAL OF          5 INNER ITERATIONS.
    ------------------------------------------------

 NO OUTPUT CONTROL FOR STRESS PERIOD    3   TIME STEP   19
 
 SOLVING FOR HEAD 
                                                   Max.-Head-Change                         Max.-Flux-Residual
  Residual-Control   Outer-Iter.   Inner-Iter.     Column Row Layer    Maximum-Head-Change  Column Row Layer    Maximum-Flux-Residual          L2-NORM 
          0                 1           2             2    2     1       0.2958565986E-02       2    2    1         0.1544371877E+00      0.3854777616E+00
          0                 2           2             2    2     1      -0.2877881247E-03       2    2    1        -0.1544374080E-01      0.3850192949E-01
          0                 3           1             2    2     1       0.1959730141E-04       2    2    1         0.1081062114E-02      0.2689673866E-02

    ------------------------------------------------
       NWT REQUIRED            3 OUTER ITERATIONS 
       AND A TOTAL OF          5 INNER ITERATIONS.
    ------------------------------------------------

 NO OUTPUT CONTROL FOR STRESS PERIOD    3   TIME STEP   20
 
 SOLVING FOR HEAD 
                                                   Max.-Head-Change                         Max.-Flux-Residual
  Residual-Control   Outer-Iter.   Inner-Iter.     Column Row Layer    Maximum-Head-Change  Column Row Layer    Maximum-Flux-Residual          L2-NORM 
          0                 1           2             2    2     1       0.2940675688E-02       2    2    1         0.1534968704E+00      0.3824967673E+00
          0                 2           2             2    2     1      -0.2860478810E-03       2    2    1        -0.1534970870E-01      0.3821053852E-01
          0                 3           1             2    2     1       0.1947879698E-04       2    2    1         0.1074479866E-02      0.2671363531E-02

    ------------------------------------------------
       NWT REQUIRED            3 OUTER ITERATIONS 
       AND A TOTAL OF          5 INNER ITERATIONS.
    ------------------------------------------------

 NO OUTPUT CONTROL FOR STRESS PERIOD    3   TIME STEP   21
 
 SOLVING FOR HEAD 
                                                   Max.-Head-Change                         Max.-Flux-Residual
  Residual-Control   Outer-Iter.   Inner-Iter.     Column Row Layer    Maximum-Head-Change  Column Row Layer    Maximum-Flux-Residual          L2-NORM 
          0                 1           2             2    2     1       0.2923027038E-02       2    2    1         0.1525692770E+00      0.3797026233E+00
          0                 2           2             2    2     1      -0.2843311427E-03       2    2    1        -0.1525694898E-01      0.3793538048E-01
          0                 3           1             2    2     1       0.1936189363E-04       2    2    1         0.1067986683E-02      0.2652299631E-02

    ------------------------------------------------
       NWT REQUIRED            3 OUTER ITERATIONS 
       AND A TOTAL OF          5 INNER ITERATIONS.
    ------------------------------------------------

 NO OUTPUT CONTROL FOR STRESS PERIOD    3   TIME STEP   22
 
 SOLVING FOR HEAD 
                                                   Max.-Head-Change                         Max.-Flux-Residual
  Residual-Control   Outer-Iter.   Inner-Iter.     Column Row Layer    Maximum-Head-Change  Column Row Layer    Maximum-Flux-Residual          L2-NORM 
          0                 1           2             2    2     1       0.2905615958E-02       2    2    1         0.1516542128E+00      0.3770550096E+00
          0                 2           2             2    2     1      -0.2826375138E-03       2    2    1        -0.1516544218E-01      0.3767414756E-01
          0                 3           1             2    2     1       0.1924656393E-04       2    2    1         0.1061581209E-02      0.2634458299E-02

    ------------------------------------------------
       NWT REQUIRED            3 OUTER ITERATIONS 
       AND A TOTAL OF          5 INNER ITERATIONS.
    ------------------------------------------------

 NO OUTPUT CONTROL FOR STRESS PERIOD    3   TIME STEP   23
 
 SOLVING FOR HEAD 
                                                   Max.-Head-Change                         Max.-Flux-Residual
  Residual-Control   Outer-Iter.   Inner-Iter.     Column Row Layer    Maximum-Head-Change  Column Row Layer    Maximum-Flux-Residual          L2-NORM 
          0                 1           2             2    2     1       0.2888354939E-02       2    2    1         0.1507470290E+00      0.3745454168E+00
          0                 2           2             2    2     1      -0.2809584821E-03       2    2    1        -0.1507472346E-01      0.3742728485E-01
          0                 3           1             2    2     1       0.1913222826E-04       2    2    1         0.1055230902E-02      0.2617520590E-02

    ------------------------------------------------
       NWT REQUIRED            3 OUTER ITERATIONS 
       AND A TOTAL OF          5 INNER ITERATIONS.
    ------------------------------------------------

 NO OUTPUT CONTROL FOR STRESS PERIOD    3   TIME STEP   24
 
 SOLVING FOR HEAD 
                                                   Max.-Head-Change                         Max.-Flux-Residual
  Residual-Control   Outer-Iter.   Inner-Iter.     Column Row Layer    Maximum-Head-Change  Column Row Layer    Maximum-Flux-Residual          L2-NORM 
          0                 1           2             2    2     1       0.2871410514E-02       2    2    1         0.1498565005E+00      0.3721681515E+00
          0                 2           2             2    2     1      -0.2793102462E-03       2    2    1        -0.1498567025E-01      0.3719261828E-01
          0                 3           1             2    2     1       0.1901998904E-04       2    2    1         0.1048997171E-02      0.2601223372E-02

    ------------------------------------------------
       NWT REQUIRED            3 OUTER ITERATIONS 
       AND A TOTAL OF          5 INNER ITERATIONS.
    ------------------------------------------------

 NO OUTPUT CONTROL FOR STRESS PERIOD    3   TIME STEP   25
 
 SOLVING FOR HEAD 
                                                   Max.-Head-Change                         Max.-Flux-Residual
  Residual-Control   Outer-Iter.   Inner-Iter.     Column Row Layer    Maximum-Head-Change  Column Row Layer    Maximum-Flux-Residual          L2-NORM 
          0                 1           2             2    2     1       0.2854608264E-02       2    2    1         0.1489735121E+00      0.3699009105E+00
          0                 2           2             2    2     1      -0.2776758406E-03       2    2    1        -0.1489737109E-01      0.3696829214E-01
          0                 3           1             2    2     1       0.1890869248E-04       2    2    1         0.1042816234E-02      0.2585727980E-02

    ------------------------------------------------
       NWT REQUIRED            3 OUTER ITERATIONS 
       AND A TOTAL OF          5 INNER ITERATIONS.
    ------------------------------------------------

 NO OUTPUT CONTROL FOR STRESS PERIOD    3   TIME STEP   26
 
 SOLVING FOR HEAD 
                                                   Max.-Head-Change                         Max.-Flux-Residual
  Residual-Control   Outer-Iter.   Inner-Iter.     Column Row Layer    Maximum-Head-Change  Column Row Layer    Maximum-Flux-Residual          L2-NORM 
          0                 1           2             2    2     1       0.2838115570E-02       2    2    1         0.1481067704E+00      0.3677400383E+00
          0                 2           2             2    2     1      -0.2760715463E-03       2    2    1        -0.1481069658E-01      0.3675480245E-01
          0                 3           1             2    2     1       0.1879944623E-04       2    2    1         0.1036749030E-02      0.2571036846E-02

    ------------------------------------------------
       NWT REQUIRED            3 OUTER ITERATIONS 
       AND A TOTAL OF          5 INNER ITERATIONS.
    ------------------------------------------------

 NO OUTPUT CONTROL FOR STRESS PERIOD    3   TIME STEP   27
 
 SOLVING FOR HEAD 
                                                   Max.-Head-Change                         Max.-Flux-Residual
  Residual-Control   Outer-Iter.   Inner-Iter.     Column Row Layer    Maximum-Head-Change  Column Row Layer    Maximum-Flux-Residual          L2-NORM 
          0                 1           2             2    2     1       0.2821758846E-02       2    2    1         0.1472472037E+00      0.3656790175E+00
          0                 2           2             2    2     1      -0.2744804784E-03       2    2    1        -0.1472473959E-01      0.3655086991E-01
          0                 3           1             2    2     1       0.1869110052E-04       2    2    1         0.1030732055E-02      0.2557093291E-02

    ------------------------------------------------
       NWT REQUIRED            3 OUTER ITERATIONS 
       AND A TOTAL OF          5 INNER ITERATIONS.
    ------------------------------------------------

 NO OUTPUT CONTROL FOR STRESS PERIOD    3   TIME STEP   28
 
 SOLVING FOR HEAD 
                                                   Max.-Head-Change                         Max.-Flux-Residual
  Residual-Control   Outer-Iter.   Inner-Iter.     Column Row Layer    Maximum-Head-Change  Column Row Layer    Maximum-Flux-Residual          L2-NORM 
          0                 1           2             2    2     1       0.2805619931E-02       2    2    1         0.1463991244E+00      0.3637082943E+00
          0                 2           2             2    2     1      -0.2729105967E-03       2    2    1        -0.1463993132E-01      0.3635570891E-01
          0                 3           1             2    2     1       0.1858419710E-04       2    2    1         0.1024795464E-02      0.2543539986E-02

    ------------------------------------------------
       NWT REQUIRED            3 OUTER ITERATIONS 
       AND A TOTAL OF          5 INNER ITERATIONS.
    ------------------------------------------------

 NO OUTPUT CONTROL FOR STRESS PERIOD    3   TIME STEP   29
 
 SOLVING FOR HEAD 
                                                   Max.-Head-Change                         Max.-Flux-Residual
  Residual-Control   Outer-Iter.   Inner-Iter.     Column Row Layer    Maximum-Head-Change  Column Row Layer    Maximum-Flux-Residual          L2-NORM 
          0                 1           2             4   13     1       0.4709136809E-02       4   13    1         0.2696369064E+00      0.6974167750E+00
          0                 2           2             2    2     1      -0.4535412924E-03       4   13    1        -0.2668102261E-01      0.6881940714E-01
          0                 3           1             2    2     1       0.3088447269E-04       4   13    1         0.1840059044E-02      0.4731509499E-02

    ------------------------------------------------
       NWT REQUIRED            3 OUTER ITERATIONS 
       AND A TOTAL OF          5 INNER ITERATIONS.
    ------------------------------------------------

 NO OUTPUT CONTROL FOR STRESS PERIOD    3   TIME STEP   30



 STREAM LISTING     PERIOD      3   STEP       30

 LAYER ROW COL. STREAM  RCH.  FLOW INTO     FLOW TO   FLOW OUT OF   OVRLND.     DIRECT     STREAM       STREAM     STREAM     STREAM   STREAMBED  STREAMBED
                SEG.NO.  NO.  STRM. RCH.    AQUIFER    STRM. RCH.    RUNOFF     PRECIP       ET          HEAD       DEPTH      WIDTH   CONDCTNC.   GRADIENT

   1    1    1     1     1    2.7188E+01  2.5503E-01   2.6933E+01  0.000E+00  0.000E+00  0.000E+00  1.09426E+03  1.210E+00  1.346E+01  6.058E-02  1.403E+00
   1    2    2     1     2    2.6933E+01  3.9447E-01   2.6539E+01  0.000E+00  0.000E+00  0.000E+00  1.08926E+03  1.205E+00  1.340E+01  9.380E-02  1.402E+00
   1    3    3     1     3    2.6539E+01  3.3594E-01   2.6203E+01  0.000E+00  0.000E+00  0.000E+00  1.08362E+03  1.200E+00  1.333E+01  7.998E-02  1.400E+00
   1    3    4     1     4    2.6203E+01  3.0895E-01   2.5894E+01  0.000E+00  0.000E+00  0.000E+00  1.07860E+03  1.196E+00  1.327E+01  7.364E-02  1.399E+00
   1    4    5     2     1    2.3894E+01  3.2529E-01   2.3568E+01  0.000E+00  0.000E+00  0.000E+00  1.07310E+03  1.170E+00  1.200E+01  7.800E-02  1.390E+00
   1    5    6     2     2    2.3568E+01  2.4971E-01   2.3319E+01  0.000E+00  0.000E+00  0.000E+00  1.06767E+03  1.162E+00  1.200E+01  6.000E-02  1.387E+00
   1    6    6     2     3    2.3319E+01  2.4927E-01   2.3069E+01  0.000E+00  0.000E+00  0.000E+00  1.06295E+03  1.154E+00  1.200E+01  6.000E-02  1.385E+00
   1    7    6     2     4    2.3069E+01  2.4882E-01   2.2821E+01  0.000E+00  0.000E+00  0.000E+00  1.05822E+03  1.147E+00  1.200E+01  6.000E-02  1.382E+00
   1    8    6     2     5    2.2821E+01  2.4837E-01   2.2572E+01  0.000E+00  0.000E+00  0.000E+00  1.05350E+03  1.140E+00  1.200E+01  6.000E-02  1.380E+00
   1    3    5     3     1    2.0000E+00  2.8252E-01   1.7175E+00  0.000E+00  0.000E+00  0.000E+00  1.07555E+03  1.909E+00  9.636E+00  7.227E-02  1.955E+00
   1    3    6     3     2    1.7175E+00  2.4905E-01   1.4684E+00  0.000E+00  0.000E+00  0.000E+00  1.07264E+03  1.727E+00  8.909E+00  6.682E-02  1.864E+00
   1    3    7     3     3    1.4684E+00  1.9718E-01   1.2712E+00  0.000E+00  0.000E+00  0.000E+00  1.06987E+03  1.555E+00  8.218E+00  5.547E-02  1.777E+00
   1    4    8     3     4    1.2712E+00  2.2567E-01   1.0456E+00  0.000E+00  0.000E+00  0.000E+00  1.06682E+03  1.364E+00  7.455E+00  6.709E-02  1.682E+00
   1    5    8     3     5    1.0456E+00  1.5790E-01   8.8768E-01  0.000E+00  0.000E+00  0.000E+00  1.06362E+03  1.164E+00  6.655E+00  4.991E-02  1.582E+00
   1    6    8     3     6    8.8768E-01  5.5980E-02   8.3170E-01  0.000E+00  0.000E+00  0.000E+00  1.06158E+03  1.036E+00  6.145E+00  1.844E-02  1.518E+00
   1    5   10     4     1    1.0000E+01  9.0919E-02   9.9091E+00  0.000E+00  0.000E+00  0.000E+00  1.07836E+03  6.368E-01  1.000E+01  2.500E-02  1.212E+00
   1    5    9     4     2    9.9091E+00  1.8158E-01   9.7275E+00  0.000E+00  0.000E+00  0.000E+00  1.07154E+03  6.315E-01  1.000E+01  5.000E-02  1.211E+00
   1    6    8     4     3    9.7275E+00  1.2689E-01   9.6006E+00  0.000E+00  0.000E+00  0.000E+00  1.06381E+03  6.256E-01  1.000E+01  3.500E-02  1.209E+00
   1    6    8     5     1    1.0432E+01  2.2686E-01   1.0205E+01  0.000E+00  0.000E+00  0.000E+00  1.05868E+03  6.790E-01  1.542E+01  6.166E-02  1.226E+00
   1    7    7     5     2    1.0205E+01  2.7894E-01   9.9265E+00  0.000E+00  0.000E+00  0.000E+00  1.05417E+03  6.732E-01  1.519E+01  7.594E-02  1.224E+00
   1    8    7     5     3    9.9265E+00  1.9221E-01   9.7343E+00  0.000E+00  0.000E+00  0.000E+00  1.04992E+03  6.676E-01  1.497E+01  5.241E-02  1.223E+00
   1    8    6     5     4    9.7343E+00  1.3577E-01   9.5985E+00  0.000E+00  0.000E+00  0.000E+00  1.04691E+03  6.637E-01  1.482E+01  3.706E-02  1.221E+00
   1    9    6     6     1    3.2171E+01  2.6502E-01   3.1906E+01  0.000E+00  0.000E+00  0.000E+00  1.04414E+03  1.417E+00  1.200E+01  6.000E-02  1.472E+00
   1   10    7     6     2    3.1906E+01  2.6460E-01   3.1641E+01  0.000E+00  0.000E+00  0.000E+00  1.03959E+03  1.410E+00  1.200E+01  6.000E-02  1.470E+00
   1   11    7     6     3    3.1641E+01  2.6418E-01   3.1377E+01  0.000E+00  0.000E+00  0.000E+00  1.03504E+03  1.403E+00  1.200E+01  6.000E-02  1.468E+00
   1   12    7     6     4    3.1377E+01  2.6375E-01   3.1113E+01  0.000E+00  0.000E+00  0.000E+00  1.03049E+03  1.396E+00  1.200E+01  6.000E-02  1.465E+00
   1   13    7     6     5    3.1113E+01  1.0995E-02   3.1102E+01  0.000E+00  0.000E+00  0.000E+00  1.02730E+03  1.392E+00  1.200E+01  2.400E-02  1.527E-01
   1   14    9     7     1    1.5000E+02  1.3665E+00   1.4863E+02  0.000E+00  0.000E+00  0.000E+00  1.03987E+03  2.288E+00  5.529E+01  5.593E-01  8.144E-01
   1   13    8     7     2    1.4863E+02  1.9191E+00   1.4671E+02  0.000E+00  0.000E+00  0.000E+00  1.03478E+03  2.279E+00  5.526E+01  6.148E-01  1.041E+00
   1   13    7     7     3    1.4671E+02  1.5891E+00   1.4513E+02  0.000E+00  0.000E+00  0.000E+00  1.02969E+03  2.270E+00  5.521E+01  5.584E-01  9.486E-01
   1   13    6     8     1    1.7623E+02  1.0561E+00   1.7517E+02  0.000E+00  0.000E+00  0.000E+00  1.02486E+03  2.989E+00  4.334E+01  4.416E-01  7.971E-01
   1   13    5     8     2    1.7517E+02  2.7870E-01   1.7489E+02  0.000E+00  0.000E+00  0.000E+00  1.01861E+03  2.985E+00  4.328E+01  4.410E-01  2.106E-01
   1   13    4     8     3    1.7489E+02 -1.9966E+00   1.7689E+02  0.000E+00  0.000E+00  0.000E+00  1.01237E+03  2.990E+00  4.336E+01  4.418E+00 -1.506E-01
   1   13    3     8     4    1.7689E+02 -3.3281E+00   1.8022E+02  0.000E+00  0.000E+00  0.000E+00  1.00613E+03  3.007E+00  4.360E+01  4.443E+00 -2.497E-01
   1   13    2     8     5    1.8022E+02 -2.3039E+00   1.8252E+02  0.000E+00  0.000E+00  0.000E+00  9.99900E+02  3.025E+00  4.386E+01  4.469E+00 -1.718E-01
   1   13    1     8     6    1.8252E+02 -1.8174E+00   1.8434E+02  0.000E+00  0.000E+00  0.000E+00  9.94913E+02  3.038E+00  4.405E+01  2.693E+00 -2.250E-01
   1    8    6     9     1    0.0000E+00  0.0000E+00   0.0000E+00  0.000E+00  0.000E+00  0.000E+00  1.07875E+03  0.000E+00  4.000E+00  0.000E+00  1.000E+00
   1    8    5     9     2    0.0000E+00  0.0000E+00   0.0000E+00  0.000E+00  0.000E+00  0.000E+00  1.07825E+03  0.000E+00  4.000E+00  0.000E+00  1.000E+00





UNSATURATED ZONE PACKAGE VOLUMETRIC BUDGET FOR  TIME STEP    30 STRESS PERIOD    3
  ------------------------------------------------------------------------------



     CUMULATIVE VOLUMES      L**3       RATES FOR THIS TIME STEP      L**3/T
     ------------------                 ------------------------

           IN:                                      IN:
           ---                                      ---
        INFILTRATION =     4531073.7455          INFILTRATION =           0.8475

          OUT:                                     OUT:
          ----                                     ----
              UZF ET =     3944985.5897                UZF ET =           0.7500
        UZF RECHARGE =       73224.0000          UZF RECHARGE =       0.0000E+00

            IN - OUT =      512864.1558              IN - OUT =       9.7500E-02

          STORAGE:                                 STORAGE:
          --------                                 --------
      STORAGE CHANGE =      512864.1946        STORAGE CHANGE =       9.7500E-02

 PERCENT DISCREPANCY IS DIFFERENCE BETWEEN IN-OUT MINUS CHANGE IN STORAGE
 DIVIDED BY THE AVERAGE OF IN AND OUT TIMES 100

 PERCENT DISCREPANCY =          -0.00     PERCENT DISCREPANCY =           0.00






1
  VOLUMETRIC BUDGET FOR AGRICULTURAL FIELDS AT  END OF TIME STEP   30, STRESS PERIOD   3
  ------------------------------------------------------------------------------

     CUMULATIVE VOLUMES      L**3       RATES FOR THIS TIME STEP      L**3/T
     ------------------                 ------------------------

           IN:                                      IN:
           ---                                      ---
               AG WELLS  =           0.0000                 AG WELLS  =           0.0000
      DIVERSION SEGMENTS =           0.0000        DIVERSION SEGMENTS =           0.0000
           GW IRRIGATION =           0.0000             GW IRRIGATION =           0.0000
           SW IRRIGATION =           0.0000             SW IRRIGATION =           0.0000
        SYSTEM LOSSES GW =           0.0000          SYSTEM LOSSES GW =           0.0000
        SYSTEM LOSSES SW =           0.0000          SYSTEM LOSSES SW =           0.0000

                TOTAL IN =           0.0000                  TOTAL IN =           0.0000

          OUT:                                     OUT:
          ----                                     ----
               AG WELLS  =           0.0000                 AG WELLS  =           0.0000
      DIVERSION SEGMENTS =           0.0000        DIVERSION SEGMENTS =           0.0000
           GW IRRIGATION =           0.0000             GW IRRIGATION =           0.0000
           SW IRRIGATION =           0.0000             SW IRRIGATION =           0.0000
        SYSTEM LOSSES GW =           0.0000          SYSTEM LOSSES GW =           0.0000
        SYSTEM LOSSES SW =           0.0000          SYSTEM LOSSES SW =           0.0000

               TOTAL OUT =           0.0000                 TOTAL OUT =           0.0000

                IN - OUT =           0.0000                  IN - OUT =           0.0000

     PERCENT DISCREPANCY =           0.00         PERCENT DISCREPANCY =           0.00



1
  VOLUMETRIC BUDGET FOR ENTIRE MODEL AT END OF TIME STEP   30, STRESS PERIOD   3
  ------------------------------------------------------------------------------

     CUMULATIVE VOLUMES      L**3       RATES FOR THIS TIME STEP      L**3/T
     ------------------                 ------------------------

           IN:                                      IN:
           ---                                      ---
             STORAGE     =     3101464.7500               STORAGE     =           0.4931
       CONSTANT HEAD     =           0.0000         CONSTANT HEAD     =           0.0000
     HEAD DEP BOUNDS     =     1538702.5000       HEAD DEP BOUNDS     =           0.2878
      STREAM LEAKAGE     =    60993756.0000        STREAM LEAKAGE     =          12.2952
        UZF RECHARGE     =       73223.9531          UZF RECHARGE     =           0.0000
               GW ET     =           0.0000                 GW ET     =           0.0000
     SURFACE LEAKAGE     =           0.0000       SURFACE LEAKAGE     =           0.0000
           AG WELLS      =           0.0000             AG WELLS      =           0.0000

                TOTAL IN =    65707148.0000                  TOTAL IN =          13.0762

          OUT:                                     OUT:
          ----                                     ----
             STORAGE     =     9831364.0000               STORAGE     =           3.3427
       CONSTANT HEAD     =           0.0000         CONSTANT HEAD     =           0.0000
     HEAD DEP BOUNDS     =     1536322.6250       HEAD DEP BOUNDS     =           0.2883
      STREAM LEAKAGE     =    54341368.0000        STREAM LEAKAGE     =           9.4460
        UZF RECHARGE     =           0.0000          UZF RECHARGE     =           0.0000
               GW ET     =           0.0000                 GW ET     =           0.0000
     SURFACE LEAKAGE     =           0.0000       SURFACE LEAKAGE     =           0.0000
           AG WELLS      =           0.0000             AG WELLS      =           0.0000

               TOTAL OUT =    65709056.0000                 TOTAL OUT =          13.0770

                IN - OUT =       -1908.0000                  IN - OUT =      -8.0872E-04

     PERCENT DISCREPANCY =          -0.00         PERCENT DISCREPANCY =          -0.01






         TIME SUMMARY AT END OF TIME STEP   30 IN STRESS PERIOD    3
                    SECONDS     MINUTES      HOURS       DAYS        YEARS
                    -----------------------------------------------------------
   TIME STEP LENGTH  87667.      1461.1      24.352      1.0147     2.77799E-03
 STRESS PERIOD TIME 2.63000E+06  43833.      730.56      30.440     8.33397E-02
         TOTAL TIME 5.34640E+06  89107.      1485.1      61.880     0.16942    
1
1
                            STRESS PERIOD NO.    4, LENGTH =   2630000.    
                            -----------------------------------------------

                              NUMBER OF TIME STEPS =    30

                               MULTIPLIER FOR DELT =     1.000

                            INITIAL TIME STEP SIZE =   87666.66    

 REUSING NON-PARAMETER GHB CELLS FROM LAST STRESS PERIOD

      2 GHB CELLS

 REUSING STREAM SEGMENT DATA FROM LAST STRESS PERIOD



            AREAL INFILTRATION RATE
 READING ON UNIT   19 WITH FORMAT: (FREE)              

            1           2           3           4           5           6           7           8           9          10
 ........................................................................................................................
   1   1.0000E-10  2.0000E-10   0.000       0.000       0.000       0.000       0.000       0.000       0.000       0.000    
   2   2.0000E-10  1.0000E-10  2.0000E-10   0.000       0.000      8.0000E-10  8.0000E-10  5.0000E-10   0.000       0.000    
   3    0.000      5.0000E-10  1.0000E-10  1.0000E-10  8.0000E-10  8.0000E-10  5.0000E-10  5.0000E-10   0.000       0.000    
   4   8.0000E-10  5.0000E-10  1.0000E-10  1.0000E-10  1.0000E-10  1.0000E-10  1.0000E-10  1.0000E-10  2.0000E-10   0.000    
   5   8.0000E-10  5.0000E-10  1.0000E-10  1.0000E-10  1.0000E-10  1.0000E-10  1.0000E-10  1.0000E-10  1.0000E-10  1.0000E-10
   6   8.0000E-10  5.0000E-10  5.0000E-10  2.0000E-10  2.0000E-10  1.0000E-10  1.0000E-10  1.0000E-10  1.0000E-10  5.0000E-10
   7   8.0000E-10  5.0000E-10  5.0000E-10  2.0000E-10  2.0000E-10  1.0000E-10  1.0000E-10  2.0000E-10  2.0000E-10   0.000    
   8    0.000      5.0000E-10  5.0000E-10  2.0000E-10  2.0000E-10  1.0000E-10  1.0000E-10  2.0000E-10  5.0000E-10   0.000    
   9    0.000      5.0000E-10  5.0000E-10  2.0000E-10  2.0000E-10  1.0000E-10  1.0000E-10  2.0000E-10  5.0000E-10   0.000    
  10    0.000      5.0000E-10  5.0000E-10  2.0000E-10  2.0000E-10  1.0000E-10  1.0000E-10  2.0000E-10  5.0000E-10  8.0000E-10
  11    0.000      1.0000E-10  1.0000E-10  1.0000E-10  1.0000E-10  1.0000E-10  1.0000E-10  2.0000E-10  5.0000E-10   0.000    
  12   1.0000E-10  1.0000E-10  1.0000E-10  1.0000E-10  1.0000E-10  1.0000E-10  1.0000E-10  1.0000E-10  2.0000E-10   0.000    
  13   1.0000E-10  1.0000E-10  2.0000E-10  2.0000E-10  2.0000E-10  2.0000E-10  2.0000E-10  1.0000E-10  1.0000E-10   0.000    
  14    0.000      2.0000E-10  5.0000E-10  5.0000E-10  5.0000E-10  5.0000E-10  5.0000E-10  2.0000E-10  1.0000E-10   0.000    
  15    0.000       0.000      8.0000E-10  8.0000E-10  8.0000E-10  8.0000E-10   0.000       0.000       0.000       0.000    

                  ET RATE =  5.000000E-10

 USING ET EXTINCTION DEPTH FROM PREVIOUS STRESS PERIOD. CURRENT PERIOD IS:       4

 USING EXTINCTION WATER CONTENT FROM PREVIOUS STRESS PERIOD. CURRENT PERIOD IS:       4

 USING AIR ENTRY PRESSURE FROM PREVIOUS STRESS PERIOD. CURRENT PERIOD IS:       4

 USING ROOT PRESSURE HEAD FROM PREVIOUS STRESS PERIOD. CURRENT PERIOD IS:       4

 USING ROOT ACTIVITY FROM PREVIOUS STRESS PERIOD. CURRENT PERIOD IS:       4

 PROCESSING AG STRESS PERIOD DATA

 READING AG STRESS PERIOD DATA

 READING IRRIGATION SEGMENT

 READING IRRIGATION WELL

 READING SUPPLEMENTAL WELL

 END PROCESSING AG STRESS PERIOD DATA OPTIONS
 
 SOLVING FOR HEAD 
                                                   Max.-Head-Change                         Max.-Flux-Residual
  Residual-Control   Outer-Iter.   Inner-Iter.     Column Row Layer    Maximum-Head-Change  Column Row Layer    Maximum-Flux-Residual          L2-NORM 
          0                 1           2             4   13     1       0.4940254060E-02       4   13    1         0.2828335364E+00      0.7295639810E+00
          0                 2           2             4   13     1      -0.4754262552E-03       4   13    1        -0.2798492593E-01      0.7196015433E-01
          0                 3           1             2    2     1       0.3214211446E-04       4   13    1         0.1930053891E-02      0.4944999565E-02

    ------------------------------------------------
       NWT REQUIRED            3 OUTER ITERATIONS 
       AND A TOTAL OF          5 INNER ITERATIONS.
    ------------------------------------------------

 NO OUTPUT CONTROL FOR STRESS PERIOD    4   TIME STEP    1
 
 SOLVING FOR HEAD 
                                                   Max.-Head-Change                         Max.-Flux-Residual
  Residual-Control   Outer-Iter.   Inner-Iter.     Column Row Layer    Maximum-Head-Change  Column Row Layer    Maximum-Flux-Residual          L2-NORM 
          0                 1           2             2    2     1       0.4822157583E-02       4   13    1         0.2567874525E+00      0.7019739491E+00
          0                 2           2             2    2     1      -0.4690653484E-03       4   13    1        -0.2540507498E-01      0.6931303985E-01
          0                 3           1             2    2     1       0.3194160249E-04       2    2    1         0.1762315083E-02      0.4770801368E-02

    ------------------------------------------------
       NWT REQUIRED            3 OUTER ITERATIONS 
       AND A TOTAL OF          5 INNER ITERATIONS.
    ------------------------------------------------

 NO OUTPUT CONTROL FOR STRESS PERIOD    4   TIME STEP    2
 
 SOLVING FOR HEAD 
                                                   Max.-Head-Change                         Max.-Flux-Residual
  Residual-Control   Outer-Iter.   Inner-Iter.     Column Row Layer    Maximum-Head-Change  Column Row Layer    Maximum-Flux-Residual          L2-NORM 
          0                 1           2             2    2     1       0.4792218275E-02       2    2    1         0.2501847211E+00      0.6774939908E+00
          0                 2           2             2    2     1      -0.4661530540E-03       2    2    1        -0.2501853140E-01      0.6696501458E-01
          0                 3           1             2    2     1       0.3174328639E-04       2    2    1         0.1751297400E-02      0.4614591764E-02

    ------------------------------------------------
       NWT REQUIRED            3 OUTER ITERATIONS 
       AND A TOTAL OF          5 INNER ITERATIONS.
    ------------------------------------------------

 NO OUTPUT CONTROL FOR STRESS PERIOD    4   TIME STEP    3
 
 SOLVING FOR HEAD 
                                                   Max.-Head-Change                         Max.-Flux-Residual
  Residual-Control   Outer-Iter.   Inner-Iter.     Column Row Layer    Maximum-Head-Change  Column Row Layer    Maximum-Flux-Residual          L2-NORM 
          0                 1           2             2    2     1       0.4762604938E-02       2    2    1         0.2486279630E+00      0.6557715732E+00
          0                 2           2             2    2     1      -0.4632724675E-03       2    2    1        -0.2486285453E-01      0.6488331357E-01
          0                 3           1             2    2     1       0.3154712850E-04       2    2    1         0.1740399999E-02      0.4477532787E-02

    ------------------------------------------------
       NWT REQUIRED            3 OUTER ITERATIONS 
       AND A TOTAL OF          5 INNER ITERATIONS.
    ------------------------------------------------

 NO OUTPUT CONTROL FOR STRESS PERIOD    4   TIME STEP    4
 
 SOLVING FOR HEAD 
                                                   Max.-Head-Change                         Max.-Flux-Residual
  Residual-Control   Outer-Iter.   Inner-Iter.     Column Row Layer    Maximum-Head-Change  Column Row Layer    Maximum-Flux-Residual          L2-NORM 
          0                 1           2             2    2     1       0.4733481710E-02       2    2    1         0.2470969832E+00      0.6364937839E+00
          0                 2           2             2    2     1      -0.4604395563E-03       2    2    1        -0.2470975552E-01      0.6303669227E-01
          0                 3           1             2    2     1       0.3135421848E-04       2    2    1         0.1729683089E-02      0.4356112170E-02

    ------------------------------------------------
       NWT REQUIRED            3 OUTER ITERATIONS 
       AND A TOTAL OF          5 INNER ITERATIONS.
    ------------------------------------------------

 NO OUTPUT CONTROL FOR STRESS PERIOD    4   TIME STEP    5
 
 SOLVING FOR HEAD 
                                                   Max.-Head-Change                         Max.-Flux-Residual
  Residual-Control   Outer-Iter.   Inner-Iter.     Column Row Layer    Maximum-Head-Change  Column Row Layer    Maximum-Flux-Residual          L2-NORM 
          0                 1           2             2    2     1       0.4704671723E-02       2    2    1         0.2455825377E+00      0.6193639979E+00
          0                 2           2             2    2     1      -0.4576371155E-03       2    2    1        -0.2455830999E-01      0.6139710657E-01
          0                 3           1             2    2     1       0.3116338291E-04       2    2    1         0.1719081920E-02      0.4248789101E-02

    ------------------------------------------------
       NWT REQUIRED            3 OUTER ITERATIONS 
       AND A TOTAL OF          5 INNER ITERATIONS.
    ------------------------------------------------

 NO OUTPUT CONTROL FOR STRESS PERIOD    4   TIME STEP    6
 
 SOLVING FOR HEAD 
                                                   Max.-Head-Change                         Max.-Flux-Residual
  Residual-Control   Outer-Iter.   Inner-Iter.     Column Row Layer    Maximum-Head-Change  Column Row Layer    Maximum-Flux-Residual          L2-NORM 
          0                 1           2             2    2     1       0.4676254724E-02       2    2    1         0.2440887720E+00      0.6041379785E+00
          0                 2           2             2    2     1      -0.4548729011E-03       2    2    1        -0.2440893243E-01      0.5993787656E-01
          0                 3           1             2    2     1       0.3097515027E-04       2    2    1         0.1708625487E-02      0.4151729320E-02

    ------------------------------------------------
       NWT REQUIRED            3 OUTER ITERATIONS 
       AND A TOTAL OF          5 INNER ITERATIONS.
    ------------------------------------------------

 NO OUTPUT CONTROL FOR STRESS PERIOD    4   TIME STEP    7
 
 SOLVING FOR HEAD 
                                                   Max.-Head-Change                         Max.-Flux-Residual
  Residual-Control   Outer-Iter.   Inner-Iter.     Column Row Layer    Maximum-Head-Change  Column Row Layer    Maximum-Flux-Residual          L2-NORM 
          0                 1           2             2    2     1       0.4648224625E-02       2    2    1         0.2426153824E+00      0.5905842825E+00
          0                 2           2             2    2     1      -0.4521463224E-03       2    2    1        -0.2426159251E-01      0.5864016789E-01
          0                 3           1             2    2     1       0.3078948032E-04       2    2    1         0.1698311696E-02      0.4066779503E-02

    ------------------------------------------------
       NWT REQUIRED            3 OUTER ITERATIONS 
       AND A TOTAL OF          5 INNER ITERATIONS.
    ------------------------------------------------

 NO OUTPUT CONTROL FOR STRESS PERIOD    4   TIME STEP    8
 
 SOLVING FOR HEAD 
                                                   Max.-Head-Change                         Max.-Flux-Residual
  Residual-Control   Outer-Iter.   Inner-Iter.     Column Row Layer    Maximum-Head-Change  Column Row Layer    Maximum-Flux-Residual          L2-NORM 
          0                 1           2             2    2     1       0.4620490796E-02       2    2    1         0.2411576139E+00      0.5784936515E+00
          0                 2           2             2    2     1      -0.4494485629E-03       2    2    1        -0.2411581473E-01      0.5748079373E-01
          0                 3           1             2    2     1       0.3060577287E-04       2    2    1         0.1688107249E-02      0.3990009837E-02

    ------------------------------------------------
       NWT REQUIRED            3 OUTER ITERATIONS 
       AND A TOTAL OF          5 INNER ITERATIONS.
    ------------------------------------------------

 NO OUTPUT CONTROL FOR STRESS PERIOD    4   TIME STEP    9
 
 SOLVING FOR HEAD 
                                                   Max.-Head-Change                         Max.-Flux-Residual
  Residual-Control   Outer-Iter.   Inner-Iter.     Column Row Layer    Maximum-Head-Change  Column Row Layer    Maximum-Flux-Residual          L2-NORM 
          0                 1           2             2    2     1       0.4593217499E-02       2    2    1         0.2397240851E+00      0.5676879250E+00
          0                 2           2             2    2     1      -0.4467956013E-03       2    2    1        -0.2397246095E-01      0.5644239693E-01
          0                 3           1             2    2     1       0.3042511661E-04       2    2    1         0.1678072501E-02      0.3919705557E-02

    ------------------------------------------------
       NWT REQUIRED            3 OUTER ITERATIONS 
       AND A TOTAL OF          5 INNER ITERATIONS.
    ------------------------------------------------

 NO OUTPUT CONTROL FOR STRESS PERIOD    4   TIME STEP   10
 
 SOLVING FOR HEAD 
                                                   Max.-Head-Change                         Max.-Flux-Residual
  Residual-Control   Outer-Iter.   Inner-Iter.     Column Row Layer    Maximum-Head-Change  Column Row Layer    Maximum-Flux-Residual          L2-NORM 
          0                 1           2             2    2     1       0.4566229086E-02       2    2    1         0.2383055556E+00      0.5580164441E+00
          0                 2           2             2    2     1      -0.4441703509E-03       2    2    1        -0.2383060709E-01      0.5551733647E-01
          0                 3           1             2    2     1       0.3024634664E-04       2    2    1         0.1668142728E-02      0.3860730970E-02

    ------------------------------------------------
       NWT REQUIRED            3 OUTER ITERATIONS 
       AND A TOTAL OF          5 INNER ITERATIONS.
    ------------------------------------------------

 NO OUTPUT CONTROL FOR STRESS PERIOD    4   TIME STEP   11
 
 SOLVING FOR HEAD 
                                                   Max.-Head-Change                         Max.-Flux-Residual
  Residual-Control   Outer-Iter.   Inner-Iter.     Column Row Layer    Maximum-Head-Change  Column Row Layer    Maximum-Flux-Residual          L2-NORM 
          0                 1           2             2    2     1       0.4539604724E-02       2    2    1         0.2369062365E+00      0.5493256300E+00
          0                 2           2             2    2     1      -0.4415805133E-03       2    2    1        -0.2369067432E-01      0.5468243130E-01
          0                 3           1             2    2     1       0.3006998813E-04       2    2    1         0.1658347432E-02      0.3805047756E-02

    ------------------------------------------------
       NWT REQUIRED            3 OUTER ITERATIONS 
       AND A TOTAL OF          5 INNER ITERATIONS.
    ------------------------------------------------

 NO OUTPUT CONTROL FOR STRESS PERIOD    4   TIME STEP   12
 
 SOLVING FOR HEAD 
                                                   Max.-Head-Change                         Max.-Flux-Residual
  Residual-Control   Outer-Iter.   Inner-Iter.     Column Row Layer    Maximum-Head-Change  Column Row Layer    Maximum-Flux-Residual          L2-NORM 
          0                 1           2             2    2     1       0.4513339485E-02       2    2    1         0.2355257930E+00      0.5415016453E+00
          0                 2           2             2    2     1      -0.4390256092E-03       2    2    1        -0.2355262914E-01      0.5393060692E-01
          0                 3           1             2    2     1       0.2989600890E-04       2    2    1         0.1648684272E-02      0.3755331928E-02

    ------------------------------------------------
       NWT REQUIRED            3 OUTER ITERATIONS 
       AND A TOTAL OF          5 INNER ITERATIONS.
    ------------------------------------------------

 NO OUTPUT CONTROL FOR STRESS PERIOD    4   TIME STEP   13
 
 SOLVING FOR HEAD 
                                                   Max.-Head-Change                         Max.-Flux-Residual
  Residual-Control   Outer-Iter.   Inner-Iter.     Column Row Layer    Maximum-Head-Change  Column Row Layer    Maximum-Flux-Residual          L2-NORM 
          0                 1           2             2    2     1       0.4487427826E-02       2    2    1         0.2341639697E+00      0.5344406390E+00
          0                 2           2             2    2     1      -0.4365050985E-03       2    2    1        -0.2341644594E-01      0.5325071536E-01
          0                 3           1             2    2     1       0.2972437179E-04       2    2    1         0.1639151456E-02      0.3710082794E-02

    ------------------------------------------------
       NWT REQUIRED            3 OUTER ITERATIONS 
       AND A TOTAL OF          5 INNER ITERATIONS.
    ------------------------------------------------

 NO OUTPUT CONTROL FOR STRESS PERIOD    4   TIME STEP   14
 
 SOLVING FOR HEAD 
                                                   Max.-Head-Change                         Max.-Flux-Residual
  Residual-Control   Outer-Iter.   Inner-Iter.     Column Row Layer    Maximum-Head-Change  Column Row Layer    Maximum-Flux-Residual          L2-NORM 
          0                 1           2             2    2     1       0.4461780033E-02       2    2    1         0.2328160390E+00      0.5280411374E+00
          0                 2           2             2    2     1      -0.4340102553E-03       2    2    1        -0.2328165206E-01      0.5263365072E-01
          0                 3           1             2    2     1       0.2955448250E-04       2    2    1         0.1629715893E-02      0.3668517790E-02

    ------------------------------------------------
       NWT REQUIRED            3 OUTER ITERATIONS 
       AND A TOTAL OF          5 INNER ITERATIONS.
    ------------------------------------------------

 NO OUTPUT CONTROL FOR STRESS PERIOD    4   TIME STEP   15
 
 SOLVING FOR HEAD 
                                                   Max.-Head-Change                         Max.-Flux-Residual
  Residual-Control   Outer-Iter.   Inner-Iter.     Column Row Layer    Maximum-Head-Change  Column Row Layer    Maximum-Flux-Residual          L2-NORM 
          0                 1           2             2    2     1       0.4436475633E-02       2    2    1         0.2314862295E+00      0.5222152298E+00
          0                 2           2             2    2     1      -0.4315488156E-03       2    2    1        -0.2314867034E-01      0.5207205197E-01
          0                 3           1             2    2     1       0.2938686765E-04       2    2    1         0.1620407179E-02      0.3631164256E-02

    ------------------------------------------------
       NWT REQUIRED            3 OUTER ITERATIONS 
       AND A TOTAL OF          5 INNER ITERATIONS.
    ------------------------------------------------

 NO OUTPUT CONTROL FOR STRESS PERIOD    4   TIME STEP   16
 
 SOLVING FOR HEAD 
                                                   Max.-Head-Change                         Max.-Flux-Residual
  Residual-Control   Outer-Iter.   Inner-Iter.     Column Row Layer    Maximum-Head-Change  Column Row Layer    Maximum-Flux-Residual          L2-NORM 
          0                 1           2             2    2     1       0.4411510040E-02       2    2    1         0.2301742244E+00      0.5168939270E+00
          0                 2           2             2    2     1      -0.4291203322E-03       2    2    1        -0.2301746904E-01      0.5155762869E-01
          0                 3           1             2    2     1       0.2922149717E-04       2    2    1         0.1611223097E-02      0.3597045539E-02

    ------------------------------------------------
       NWT REQUIRED            3 OUTER ITERATIONS 
       AND A TOTAL OF          5 INNER ITERATIONS.
    ------------------------------------------------

 NO OUTPUT CONTROL FOR STRESS PERIOD    4   TIME STEP   17
 
 SOLVING FOR HEAD 
                                                   Max.-Head-Change                         Max.-Flux-Residual
  Residual-Control   Outer-Iter.   Inner-Iter.     Column Row Layer    Maximum-Head-Change  Column Row Layer    Maximum-Flux-Residual          L2-NORM 
          0                 1           2             2    2     1       0.4386877703E-02       2    2    1         0.2288797862E+00      0.5120294248E+00
          0                 2           2             2    2     1      -0.4267242657E-03       2    2    1        -0.2288802445E-01      0.5108618150E-01
          0                 3           1             2    2     1       0.2905833367E-04       2    2    1         0.1602161971E-02      0.3565162153E-02

    ------------------------------------------------
       NWT REQUIRED            3 OUTER ITERATIONS 
       AND A TOTAL OF          5 INNER ITERATIONS.
    ------------------------------------------------

 NO OUTPUT CONTROL FOR STRESS PERIOD    4   TIME STEP   18
 
 SOLVING FOR HEAD 
                                                   Max.-Head-Change                         Max.-Flux-Residual
  Residual-Control   Outer-Iter.   Inner-Iter.     Column Row Layer    Maximum-Head-Change  Column Row Layer    Maximum-Flux-Residual          L2-NORM 
          0                 1           2             2    2     1       0.4362573845E-02       2    2    1         0.2276026270E+00      0.5075546267E+00
          0                 2           2             2    2     1      -0.4243601519E-03       2    2    1        -0.2276030779E-01      0.5065320008E-01
          0                 3           1             2    2     1       0.2889734662E-04       2    2    1         0.1593221805E-02      0.3536293280E-02

    ------------------------------------------------
       NWT REQUIRED            3 OUTER ITERATIONS 
       AND A TOTAL OF          5 INNER ITERATIONS.
    ------------------------------------------------

 NO OUTPUT CONTROL FOR STRESS PERIOD    4   TIME STEP   19
 
 SOLVING FOR HEAD 
                                                   Max.-Head-Change                         Max.-Flux-Residual
  Residual-Control   Outer-Iter.   Inner-Iter.     Column Row Layer    Maximum-Head-Change  Column Row Layer    Maximum-Flux-Residual          L2-NORM 
          0                 1           2             2    2     1       0.4338508452E-02       2    2    1         0.2263380583E+00      0.5034377484E+00
          0                 2           2             2    2     1      -0.4220192344E-03       2    2    1        -0.2263385019E-01      0.5025361756E-01
          0                 3           1             2    2     1       0.2873793842E-04       2    2    1         0.1584369763E-02      0.3509737241E-02

    ------------------------------------------------
       NWT REQUIRED            3 OUTER ITERATIONS 
       AND A TOTAL OF          5 INNER ITERATIONS.
    ------------------------------------------------

 NO OUTPUT CONTROL FOR STRESS PERIOD    4   TIME STEP   20
 
 SOLVING FOR HEAD 
                                                   Max.-Head-Change                         Max.-Flux-Residual
  Residual-Control   Outer-Iter.   Inner-Iter.     Column Row Layer    Maximum-Head-Change  Column Row Layer    Maximum-Flux-Residual          L2-NORM 
          0                 1           2             2    2     1       0.4314847168E-02       2    2    1         0.2250947353E+00      0.4996133819E+00
          0                 2           2             2    2     1      -0.4197176259E-03       2    2    1        -0.2250951718E-01      0.4988202170E-01
          0                 3           1             2    2     1       0.2858120793E-04       2    2    1         0.1575666462E-02      0.3484505145E-02

    ------------------------------------------------
       NWT REQUIRED            3 OUTER ITERATIONS 
       AND A TOTAL OF          5 INNER ITERATIONS.
    ------------------------------------------------

 NO OUTPUT CONTROL FOR STRESS PERIOD    4   TIME STEP   21
 
 SOLVING FOR HEAD 
                                                   Max.-Head-Change                         Max.-Flux-Residual
  Residual-Control   Outer-Iter.   Inner-Iter.     Column Row Layer    Maximum-Head-Change  Column Row Layer    Maximum-Flux-Residual          L2-NORM 
          0                 1           2             2    2     1       0.4291414479E-02       2    2    1         0.2238634830E+00      0.4960630000E+00
          0                 2           2             2    2     1      -0.4174382541E-03       2    2    1        -0.2238639126E-01      0.4953555933E-01
          0                 3           1             2    2     1       0.2842599145E-04       2    2    1         0.1567047673E-02      0.3460935748E-02

    ------------------------------------------------
       NWT REQUIRED            3 OUTER ITERATIONS 
       AND A TOTAL OF          5 INNER ITERATIONS.
    ------------------------------------------------

 NO OUTPUT CONTROL FOR STRESS PERIOD    4   TIME STEP   22
 
 SOLVING FOR HEAD 
                                                   Max.-Head-Change                         Max.-Flux-Residual
  Residual-Control   Outer-Iter.   Inner-Iter.     Column Row Layer    Maximum-Head-Change  Column Row Layer    Maximum-Flux-Residual          L2-NORM 
          0                 1           2             2    2     1       0.4268291955E-02       2    2    1         0.2226485241E+00      0.4927558579E+00
          0                 2           2             2    2     1      -0.4151890524E-03       2    2    1        -0.2226489467E-01      0.4921288649E-01
          0                 3           1             2    2     1       0.2827282929E-04       2    2    1         0.1558542905E-02      0.3439051360E-02

    ------------------------------------------------
       NWT REQUIRED            3 OUTER ITERATIONS 
       AND A TOTAL OF          5 INNER ITERATIONS.
    ------------------------------------------------

 NO OUTPUT CONTROL FOR STRESS PERIOD    4   TIME STEP   23
 
 SOLVING FOR HEAD 
                                                   Max.-Head-Change                         Max.-Flux-Residual
  Residual-Control   Outer-Iter.   Inner-Iter.     Column Row Layer    Maximum-Head-Change  Column Row Layer    Maximum-Flux-Residual          L2-NORM 
          0                 1           2             2    2     1       0.4245474501E-02       2    2    1         0.2214496470E+00      0.4896634156E+00
          0                 2           2             2    2     1      -0.4129695262E-03       2    2    1        -0.2214500630E-01      0.4890999654E-01
          0                 3           1             2    2     1       0.2812168760E-04       2    2    1         0.1550150717E-02      0.3418764024E-02

    ------------------------------------------------
       NWT REQUIRED            3 OUTER ITERATIONS 
       AND A TOTAL OF          5 INNER ITERATIONS.
    ------------------------------------------------

 NO OUTPUT CONTROL FOR STRESS PERIOD    4   TIME STEP   24
 
 SOLVING FOR HEAD 
                                                   Max.-Head-Change                         Max.-Flux-Residual
  Residual-Control   Outer-Iter.   Inner-Iter.     Column Row Layer    Maximum-Head-Change  Column Row Layer    Maximum-Flux-Residual          L2-NORM 
          0                 1           2             2    2     1       0.4222872837E-02       2    2    1         0.2202621459E+00      0.4867598423E+00
          0                 2           2             2    2     1      -0.4107709911E-03       2    2    1        -0.2202625555E-01      0.4862614022E-01
          0                 3           1             2    2     1       0.2797197567E-04       2    2    1         0.1541838174E-02      0.3398971447E-02

    ------------------------------------------------
       NWT REQUIRED            3 OUTER ITERATIONS 
       AND A TOTAL OF          5 INNER ITERATIONS.
    ------------------------------------------------

 NO OUTPUT CONTROL FOR STRESS PERIOD    4   TIME STEP   25
 
 SOLVING FOR HEAD 
                                                   Max.-Head-Change                         Max.-Flux-Residual
  Residual-Control   Outer-Iter.   Inner-Iter.     Column Row Layer    Maximum-Head-Change  Column Row Layer    Maximum-Flux-Residual          L2-NORM 
          0                 1           2             2    2     1       0.4200652667E-02       2    2    1         0.2190947162E+00      0.4840164055E+00
          0                 2           2             2    2     1      -0.4086095643E-03       2    2    1        -0.2190951193E-01      0.4835785523E-01
          0                 3           1             2    2     1       0.2782479069E-04       2    2    1         0.1533666110E-02      0.3380996787E-02

    ------------------------------------------------
       NWT REQUIRED            3 OUTER ITERATIONS 
       AND A TOTAL OF          5 INNER ITERATIONS.
    ------------------------------------------------

 NO OUTPUT CONTROL FOR STRESS PERIOD    4   TIME STEP   26
 
 SOLVING FOR HEAD 
                                                   Max.-Head-Change                         Max.-Flux-Residual
  Residual-Control   Outer-Iter.   Inner-Iter.     Column Row Layer    Maximum-Head-Change  Column Row Layer    Maximum-Flux-Residual          L2-NORM 
          0                 1           2             2    2     1       0.4178639160E-02       2    2    1         0.2179381834E+00      0.4814391590E+00
          0                 2           2             2    2     1      -0.4064682415E-03       2    2    1        -0.2179385804E-01      0.4810489317E-01
          0                 3           1             2    2     1       0.2767897487E-04       2    2    1         0.1525570355E-02      0.3363678767E-02

    ------------------------------------------------
       NWT REQUIRED            3 OUTER ITERATIONS 
       AND A TOTAL OF          5 INNER ITERATIONS.
    ------------------------------------------------

 NO OUTPUT CONTROL FOR STRESS PERIOD    4   TIME STEP   27
 
 SOLVING FOR HEAD 
                                                   Max.-Head-Change                         Max.-Flux-Residual
  Residual-Control   Outer-Iter.   Inner-Iter.     Column Row Layer    Maximum-Head-Change  Column Row Layer    Maximum-Flux-Residual          L2-NORM 
          0                 1           2             2    2     1       0.4156913551E-02       2    2    1         0.2167968075E+00      0.4789933315E+00
          0                 2           2             2    2     1      -0.4043549225E-03       2    2    1        -0.2167971982E-01      0.4786439523E-01
          0                 3           1             2    2     1       0.2753506545E-04       2    2    1         0.1517580677E-02      0.3347339350E-02

    ------------------------------------------------
       NWT REQUIRED            3 OUTER ITERATIONS 
       AND A TOTAL OF          5 INNER ITERATIONS.
    ------------------------------------------------

 NO OUTPUT CONTROL FOR STRESS PERIOD    4   TIME STEP   28
 
 SOLVING FOR HEAD 
                                                   Max.-Head-Change                         Max.-Flux-Residual
  Residual-Control   Outer-Iter.   Inner-Iter.     Column Row Layer    Maximum-Head-Change  Column Row Layer    Maximum-Flux-Residual          L2-NORM 
          0                 1           2             2    2     1       0.4135471841E-02       2    2    1         0.2156703588E+00      0.4766663408E+00
          0                 2           2             2    2     1      -0.4022692199E-03       2    2    1        -0.2156707436E-01      0.4763557775E-01
          0                 3           1             2    2     1       0.2739303687E-04       2    2    1         0.1509695497E-02      0.3372475522E-02

    ------------------------------------------------
       NWT REQUIRED            3 OUTER ITERATIONS 
       AND A TOTAL OF          5 INNER ITERATIONS.
    ------------------------------------------------

 NO OUTPUT CONTROL FOR STRESS PERIOD    4   TIME STEP   29
 
 SOLVING FOR HEAD 
                                                   Max.-Head-Change                         Max.-Flux-Residual
  Residual-Control   Outer-Iter.   Inner-Iter.     Column Row Layer    Maximum-Head-Change  Column Row Layer    Maximum-Flux-Residual          L2-NORM 
          0                 1           2             2    2     1       0.3369543325E-02       2    2    1         0.1756372830E+00      0.4352889761E+00
          0                 2           2             2    2     1      -0.3277650367E-03       2    2    1        -0.1756375192E-01      0.4340655926E-01
          0                 3           1             2    2     1       0.2231958058E-04       2    2    1         0.1229462943E-02      0.3027373875E-02

    ------------------------------------------------
       NWT REQUIRED            3 OUTER ITERATIONS 
       AND A TOTAL OF          5 INNER ITERATIONS.
    ------------------------------------------------

 NO OUTPUT CONTROL FOR STRESS PERIOD    4   TIME STEP   30



 STREAM LISTING     PERIOD      4   STEP       30

 LAYER ROW COL. STREAM  RCH.  FLOW INTO     FLOW TO   FLOW OUT OF   OVRLND.     DIRECT     STREAM       STREAM     STREAM     STREAM   STREAMBED  STREAMBED
                SEG.NO.  NO.  STRM. RCH.    AQUIFER    STRM. RCH.    RUNOFF     PRECIP       ET          HEAD       DEPTH      WIDTH   CONDCTNC.   GRADIENT

   1    1    1     1     1    2.3343E+01  2.3738E-01   2.3105E+01  0.000E+00  0.000E+00  0.000E+00  1.09420E+03  1.153E+00  1.270E+01  5.716E-02  1.384E+00
   1    2    2     1     2    2.3105E+01  3.6700E-01   2.2738E+01  0.000E+00  0.000E+00  0.000E+00  1.08921E+03  1.148E+00  1.264E+01  8.847E-02  1.383E+00
   1    3    3     1     3    2.2738E+01  3.1238E-01   2.2426E+01  0.000E+00  0.000E+00  0.000E+00  1.08356E+03  1.143E+00  1.257E+01  7.540E-02  1.381E+00
   1    3    4     1     4    2.2426E+01  2.8716E-01   2.2139E+01  0.000E+00  0.000E+00  0.000E+00  1.07855E+03  1.138E+00  1.250E+01  6.939E-02  1.379E+00
   1    4    5     2     1    2.0139E+01  3.1634E-01   1.9822E+01  0.000E+00  0.000E+00  0.000E+00  1.07299E+03  1.056E+00  1.200E+01  7.800E-02  1.352E+00
   1    5    6     2     2    1.9822E+01  2.4280E-01   1.9580E+01  0.000E+00  0.000E+00  0.000E+00  1.06756E+03  1.047E+00  1.200E+01  6.000E-02  1.349E+00
   1    6    6     2     3    1.9580E+01  2.4234E-01   1.9337E+01  0.000E+00  0.000E+00  0.000E+00  1.06283E+03  1.039E+00  1.200E+01  6.000E-02  1.346E+00
   1    7    6     2     4    1.9337E+01  2.4187E-01   1.9095E+01  0.000E+00  0.000E+00  0.000E+00  1.05811E+03  1.031E+00  1.200E+01  6.000E-02  1.344E+00
   1    8    6     2     5    1.9095E+01  2.4140E-01   1.8854E+01  0.000E+00  0.000E+00  0.000E+00  1.05338E+03  1.023E+00  1.200E+01  6.000E-02  1.341E+00
   1    3    5     3     1    2.0000E+00  2.8252E-01   1.7175E+00  0.000E+00  0.000E+00  0.000E+00  1.07555E+03  1.909E+00  9.636E+00  7.227E-02  1.955E+00
   1    3    6     3     2    1.7175E+00  2.4905E-01   1.4684E+00  0.000E+00  0.000E+00  0.000E+00  1.07264E+03  1.727E+00  8.909E+00  6.682E-02  1.864E+00
   1    3    7     3     3    1.4684E+00  1.9718E-01   1.2712E+00  0.000E+00  0.000E+00  0.000E+00  1.06987E+03  1.555E+00  8.218E+00  5.547E-02  1.777E+00
   1    4    8     3     4    1.2712E+00  2.2567E-01   1.0456E+00  0.000E+00  0.000E+00  0.000E+00  1.06682E+03  1.364E+00  7.455E+00  6.709E-02  1.682E+00
   1    5    8     3     5    1.0456E+00  1.5790E-01   8.8768E-01  0.000E+00  0.000E+00  0.000E+00  1.06362E+03  1.164E+00  6.655E+00  4.991E-02  1.582E+00
   1    6    8     3     6    8.8768E-01  5.5980E-02   8.3170E-01  0.000E+00  0.000E+00  0.000E+00  1.06158E+03  1.036E+00  6.145E+00  1.844E-02  1.518E+00
   1    5   10     4     1    1.0000E+01  9.0919E-02   9.9091E+00  0.000E+00  0.000E+00  0.000E+00  1.07836E+03  6.368E-01  1.000E+01  2.500E-02  1.212E+00
   1    5    9     4     2    9.9091E+00  1.8158E-01   9.7275E+00  0.000E+00  0.000E+00  0.000E+00  1.07154E+03  6.315E-01  1.000E+01  5.000E-02  1.211E+00
   1    6    8     4     3    9.7275E+00  1.2689E-01   9.6006E+00  0.000E+00  0.000E+00  0.000E+00  1.06381E+03  6.256E-01  1.000E+01  3.500E-02  1.209E+00
   1    6    8     5     1    1.0432E+01  2.2686E-01   1.0205E+01  0.000E+00  0.000E+00  0.000E+00  1.05868E+03  6.790E-01  1.542E+01  6.166E-02  1.226E+00
   1    7    7     5     2    1.0205E+01  2.7894E-01   9.9265E+00  0.000E+00  0.000E+00  0.000E+00  1.05417E+03  6.732E-01  1.519E+01  7.594E-02  1.224E+00
   1    8    7     5     3    9.9265E+00  1.9221E-01   9.7343E+00  0.000E+00  0.000E+00  0.000E+00  1.04992E+03  6.676E-01  1.497E+01  5.241E-02  1.223E+00
   1    8    6     5     4    9.7343E+00  1.3577E-01   9.5985E+00  0.000E+00  0.000E+00  0.000E+00  1.04691E+03  6.637E-01  1.482E+01  3.706E-02  1.221E+00
   1    9    6     6     1    2.8452E+01  2.5896E-01   2.8194E+01  0.000E+00  0.000E+00  0.000E+00  1.04404E+03  1.316E+00  1.200E+01  6.000E-02  1.439E+00
   1   10    7     6     2    2.8194E+01  2.5853E-01   2.7935E+01  0.000E+00  0.000E+00  0.000E+00  1.03949E+03  1.309E+00  1.200E+01  6.000E-02  1.436E+00
   1   11    7     6     3    2.7935E+01  2.5809E-01   2.7677E+01  0.000E+00  0.000E+00  0.000E+00  1.03494E+03  1.302E+00  1.200E+01  6.000E-02  1.434E+00
   1   12    7     6     4    2.7677E+01  2.5766E-01   2.7419E+01  0.000E+00  0.000E+00  0.000E+00  1.03039E+03  1.294E+00  1.200E+01  6.000E-02  1.431E+00
   1   13    7     6     5    2.7419E+01  8.2030E-03   2.7411E+01  0.000E+00  0.000E+00  0.000E+00  1.02720E+03  1.291E+00  1.200E+01  2.400E-02  1.139E-01
   1   14    9     7     1    1.5000E+02  1.3670E+00   1.4863E+02  0.000E+00  0.000E+00  0.000E+00  1.03987E+03  2.288E+00  5.529E+01  5.593E-01  8.147E-01
   1   13    8     7     2    1.4863E+02  1.9172E+00   1.4672E+02  0.000E+00  0.000E+00  0.000E+00  1.03478E+03  2.279E+00  5.526E+01  6.148E-01  1.040E+00
   1   13    7     7     3    1.4672E+02  1.5809E+00   1.4513E+02  0.000E+00  0.000E+00  0.000E+00  1.02969E+03  2.270E+00  5.521E+01  5.584E-01  9.437E-01
   1   13    6     8     1    1.7255E+02  1.0238E+00   1.7152E+02  0.000E+00  0.000E+00  0.000E+00  1.02484E+03  2.965E+00  4.300E+01  4.382E-01  7.788E-01
   1   13    5     8     2    1.7152E+02  2.5244E-01   1.7127E+02  0.000E+00  0.000E+00  0.000E+00  1.01859E+03  2.961E+00  4.294E+01  4.376E-01  1.923E-01
   1   13    4     8     3    1.7127E+02 -2.2862E+00   1.7356E+02  0.000E+00  0.000E+00  0.000E+00  1.01234E+03  2.968E+00  4.303E+01  4.385E+00 -1.738E-01
   1   13    3     8     4    1.7356E+02 -3.5976E+00   1.7715E+02  0.000E+00  0.000E+00  0.000E+00  1.00611E+03  2.987E+00  4.331E+01  4.413E+00 -2.717E-01
   1   13    2     8     5    1.7715E+02 -2.6042E+00   1.7976E+02  0.000E+00  0.000E+00  0.000E+00  9.99881E+02  3.006E+00  4.359E+01  4.442E+00 -1.954E-01
   1   13    1     8     6    1.7976E+02 -1.9818E+00   1.8174E+02  0.000E+00  0.000E+00  0.000E+00  9.94896E+02  3.021E+00  4.380E+01  2.678E+00 -2.467E-01
   1    8    6     9     1    0.0000E+00  0.0000E+00   0.0000E+00  0.000E+00  0.000E+00  0.000E+00  1.07875E+03  0.000E+00  4.000E+00  0.000E+00  1.000E+00
   1    8    5     9     2    0.0000E+00  0.0000E+00   0.0000E+00  0.000E+00  0.000E+00  0.000E+00  1.07825E+03  0.000E+00  4.000E+00  0.000E+00  1.000E+00





UNSATURATED ZONE PACKAGE VOLUMETRIC BUDGET FOR  TIME STEP    30 STRESS PERIOD    4
  ------------------------------------------------------------------------------



     CUMULATIVE VOLUMES      L**3       RATES FOR THIS TIME STEP      L**3/T
     ------------------                 ------------------------

           IN:                                      IN:
           ---                                      ---
        INFILTRATION =     6759998.6182          INFILTRATION =           0.8475

          OUT:                                     OUT:
          ----                                     ----
              UZF ET =     5917485.4539                UZF ET =           0.7500
        UZF RECHARGE =       73224.0000          UZF RECHARGE =       0.0000E+00

            IN - OUT =      769289.1644              IN - OUT =       9.7500E-02

          STORAGE:                                 STORAGE:
          --------                                 --------
      STORAGE CHANGE =      769289.2225        STORAGE CHANGE =       9.7500E-02

 PERCENT DISCREPANCY IS DIFFERENCE BETWEEN IN-OUT MINUS CHANGE IN STORAGE
 DIVIDED BY THE AVERAGE OF IN AND OUT TIMES 100

 PERCENT DISCREPANCY =           0.00     PERCENT DISCREPANCY =           0.00






1
  VOLUMETRIC BUDGET FOR AGRICULTURAL FIELDS AT  END OF TIME STEP   30, STRESS PERIOD   4
  ------------------------------------------------------------------------------

     CUMULATIVE VOLUMES      L**3       RATES FOR THIS TIME STEP      L**3/T
     ------------------                 ------------------------

           IN:                                      IN:
           ---                                      ---
               AG WELLS  =           0.0000                 AG WELLS  =           0.0000
      DIVERSION SEGMENTS =           0.0000        DIVERSION SEGMENTS =           0.0000
           GW IRRIGATION =           0.0000             GW IRRIGATION =           0.0000
           SW IRRIGATION =           0.0000             SW IRRIGATION =           0.0000
        SYSTEM LOSSES GW =           0.0000          SYSTEM LOSSES GW =           0.0000
        SYSTEM LOSSES SW =           0.0000          SYSTEM LOSSES SW =           0.0000

                TOTAL IN =           0.0000                  TOTAL IN =           0.0000

          OUT:                                     OUT:
          ----                                     ----
               AG WELLS  =           0.0000                 AG WELLS  =           0.0000
      DIVERSION SEGMENTS =           0.0000        DIVERSION SEGMENTS =           0.0000
           GW IRRIGATION =           0.0000             GW IRRIGATION =           0.0000
           SW IRRIGATION =           0.0000             SW IRRIGATION =           0.0000
        SYSTEM LOSSES GW =           0.0000          SYSTEM LOSSES GW =           0.0000
        SYSTEM LOSSES SW =           0.0000          SYSTEM LOSSES SW =           0.0000

               TOTAL OUT =           0.0000                 TOTAL OUT =           0.0000

                IN - OUT =           0.0000                  IN - OUT =           0.0000

     PERCENT DISCREPANCY =           0.00         PERCENT DISCREPANCY =           0.00



1
  VOLUMETRIC BUDGET FOR ENTIRE MODEL AT END OF TIME STEP   30, STRESS PERIOD   4
  ------------------------------------------------------------------------------

     CUMULATIVE VOLUMES      L**3       RATES FOR THIS TIME STEP      L**3/T
     ------------------                 ------------------------

           IN:                                      IN:
           ---                                      ---
             STORAGE     =     4302723.0000               STORAGE     =           0.6662
       CONSTANT HEAD     =           0.0000         CONSTANT HEAD     =           0.0000
     HEAD DEP BOUNDS     =     2295783.0000       HEAD DEP BOUNDS     =           0.2879
      STREAM LEAKAGE     =    93457376.0000        STREAM LEAKAGE     =          12.0729
        UZF RECHARGE     =       73223.9531          UZF RECHARGE     =           0.0000
               GW ET     =           0.0000                 GW ET     =           0.0000
     SURFACE LEAKAGE     =           0.0000       SURFACE LEAKAGE     =           0.0000
           AG WELLS      =           0.0000             AG WELLS      =           0.0000

                TOTAL IN =   100129104.0000                  TOTAL IN =          13.0270

          OUT:                                     OUT:
          ----                                     ----
             STORAGE     =    17553954.0000               STORAGE     =           2.2674
       CONSTANT HEAD     =           0.0000         CONSTANT HEAD     =           0.0000
     HEAD DEP BOUNDS     =     2297699.7500       HEAD DEP BOUNDS     =           0.2902
      STREAM LEAKAGE     =    80281208.0000        STREAM LEAKAGE     =          10.4698
        UZF RECHARGE     =           0.0000          UZF RECHARGE     =           0.0000
               GW ET     =           0.0000                 GW ET     =           0.0000
     SURFACE LEAKAGE     =           0.0000       SURFACE LEAKAGE     =           0.0000
           AG WELLS      =           0.0000             AG WELLS      =           0.0000

               TOTAL OUT =   100132864.0000                 TOTAL OUT =          13.0274

                IN - OUT =       -3760.0000                  IN - OUT =      -4.5490E-04

     PERCENT DISCREPANCY =          -0.00         PERCENT DISCREPANCY =          -0.00






         TIME SUMMARY AT END OF TIME STEP   30 IN STRESS PERIOD    4
                    SECONDS     MINUTES      HOURS       DAYS        YEARS
                    -----------------------------------------------------------
   TIME STEP LENGTH  87667.      1461.1      24.352      1.0147     2.77799E-03
 STRESS PERIOD TIME 2.63000E+06  43833.      730.56      30.440     8.33397E-02
         TOTAL TIME 7.97639E+06 1.32940E+05  2215.7      92.319     0.25276    
1
1
                            STRESS PERIOD NO.    5, LENGTH =   2630000.    
                            -----------------------------------------------

                              NUMBER OF TIME STEPS =    30

                               MULTIPLIER FOR DELT =     1.000

                            INITIAL TIME STEP SIZE =   87666.66    

 REUSING NON-PARAMETER GHB CELLS FROM LAST STRESS PERIOD

      2 GHB CELLS

 REUSING STREAM SEGMENT DATA FROM LAST STRESS PERIOD



            AREAL INFILTRATION RATE
 READING ON UNIT   19 WITH FORMAT: (FREE)              

            1           2           3           4           5           6           7           8           9          10
 ........................................................................................................................
   1   1.0000E-10  2.0000E-10   0.000       0.000       0.000       0.000       0.000       0.000       0.000       0.000    
   2   2.0000E-10  1.0000E-10  2.0000E-10   0.000       0.000      8.0000E-10  8.0000E-10  5.0000E-10   0.000       0.000    
   3    0.000      5.0000E-10  1.0000E-10  1.0000E-10  8.0000E-10  8.0000E-10  5.0000E-10  5.0000E-10   0.000       0.000    
   4   8.0000E-10  5.0000E-10  1.0000E-10  1.0000E-10  1.0000E-10  1.0000E-10  1.0000E-10  1.0000E-10  2.0000E-10   0.000    
   5   8.0000E-10  5.0000E-10  1.0000E-10  1.0000E-10  1.0000E-10  1.0000E-10  1.0000E-10  1.0000E-10  1.0000E-10  1.0000E-10
   6   8.0000E-10  5.0000E-10  5.0000E-10  2.0000E-10  2.0000E-10  1.0000E-10  1.0000E-10  1.0000E-10  1.0000E-10  5.0000E-10
   7   8.0000E-10  5.0000E-10  5.0000E-10  2.0000E-10  2.0000E-10  1.0000E-10  1.0000E-10  2.0000E-10  2.0000E-10   0.000    
   8    0.000      5.0000E-10  5.0000E-10  2.0000E-10  2.0000E-10  1.0000E-10  1.0000E-10  2.0000E-10  5.0000E-10   0.000    
   9    0.000      5.0000E-10  5.0000E-10  2.0000E-10  2.0000E-10  1.0000E-10  1.0000E-10  2.0000E-10  5.0000E-10   0.000    
  10    0.000      5.0000E-10  5.0000E-10  2.0000E-10  2.0000E-10  1.0000E-10  1.0000E-10  2.0000E-10  5.0000E-10  8.0000E-10
  11    0.000      1.0000E-10  1.0000E-10  1.0000E-10  1.0000E-10  1.0000E-10  1.0000E-10  2.0000E-10  5.0000E-10   0.000    
  12   1.0000E-10  1.0000E-10  1.0000E-10  1.0000E-10  1.0000E-10  1.0000E-10  1.0000E-10  1.0000E-10  2.0000E-10   0.000    
  13   1.0000E-10  1.0000E-10  2.0000E-10  2.0000E-10  2.0000E-10  2.0000E-10  2.0000E-10  1.0000E-10  1.0000E-10   0.000    
  14    0.000      2.0000E-10  5.0000E-10  5.0000E-10  5.0000E-10  5.0000E-10  5.0000E-10  2.0000E-10  1.0000E-10   0.000    
  15    0.000       0.000      8.0000E-10  8.0000E-10  8.0000E-10  8.0000E-10   0.000       0.000       0.000       0.000    

                  ET RATE =  2.500000E-08

 USING ET EXTINCTION DEPTH FROM PREVIOUS STRESS PERIOD. CURRENT PERIOD IS:       5

 USING EXTINCTION WATER CONTENT FROM PREVIOUS STRESS PERIOD. CURRENT PERIOD IS:       5

 USING AIR ENTRY PRESSURE FROM PREVIOUS STRESS PERIOD. CURRENT PERIOD IS:       5

 USING ROOT PRESSURE HEAD FROM PREVIOUS STRESS PERIOD. CURRENT PERIOD IS:       5

 USING ROOT ACTIVITY FROM PREVIOUS STRESS PERIOD. CURRENT PERIOD IS:       5

 PROCESSING AG STRESS PERIOD DATA

 READING AG STRESS PERIOD DATA

 READING IRRIGATION SEGMENT

 READING IRRIGATION WELL

 READING SUPPLEMENTAL WELL

 END PROCESSING AG STRESS PERIOD DATA OPTIONS
 
 SOLVING FOR HEAD 
                                                   Max.-Head-Change                         Max.-Flux-Residual
  Residual-Control   Outer-Iter.   Inner-Iter.     Column Row Layer    Maximum-Head-Change  Column Row Layer    Maximum-Flux-Residual          L2-NORM 
          0                 1           2             4   13     1      -0.6298791006E-02       4   13    1        -0.3613000337E+00      0.6577548261E+00
          0                 2           2             4    7     1      -0.1862043170E+01       5    6    1        -0.1000053668E+03      0.2449574635E+03
          0                 3           2             4    7     1       0.1258080764E+00       5    8    1         0.7042165642E+01      0.1711339260E+02
          0                 4           2             4    7     1      -0.5006108978E-02       5    8    1        -0.2880298337E+00      0.7000229104E+00
          0                 5           1             4    7     1       0.6172734630E-04       5    8    1         0.3650218081E-02      0.8901595299E-02

    ------------------------------------------------
       NWT REQUIRED            5 OUTER ITERATIONS 
       AND A TOTAL OF          9 INNER ITERATIONS.
    ------------------------------------------------

 NO OUTPUT CONTROL FOR STRESS PERIOD    5   TIME STEP    1
 
 SOLVING FOR HEAD 
                                                   Max.-Head-Change                         Max.-Flux-Residual
  Residual-Control   Outer-Iter.   Inner-Iter.     Column Row Layer    Maximum-Head-Change  Column Row Layer    Maximum-Flux-Residual          L2-NORM 
          0                 1           2             5    8     1       0.5372264912E-01       5    8    1         0.2962324641E+01      0.6303557717E+01
          0                 2           2             5    8     1      -0.5225700908E-02       5    8    1        -0.2962291246E+00      0.6302252299E+00
          0                 3           2             5    8     1       0.3558513305E-03       5    8    1         0.2073607944E-01      0.4410515788E-01
          0                 4           1             5    8     1      -0.1415965536E-04       5    8    1        -0.8481066809E-03      0.1803339726E-02

    ------------------------------------------------
       NWT REQUIRED            4 OUTER ITERATIONS 
       AND A TOTAL OF          7 INNER ITERATIONS.
    ------------------------------------------------

 OUTPUT CONTROL FOR STRESS PERIOD    5   TIME STEP    2
    PRINT BUDGET
    SAVE BUDGET
 UBDSV1 SAVING "         STORAGE" ON UNIT 102 AT TIME STEP  2, STRESS PERIOD   5
 UBDSV2 SAVING "   CONSTANT HEAD" ON UNIT 102 AT TIME STEP  2, STRESS PERIOD   5
 UBDSV1 SAVING "FLOW RIGHT FACE " ON UNIT 102 AT TIME STEP  2, STRESS PERIOD   5
 UBDSV1 SAVING "FLOW FRONT FACE " ON UNIT 102 AT TIME STEP  2, STRESS PERIOD   5

  HEAD DEP BOUNDS   PERIOD    5   STEP     2
 BOUNDARY      1   LAYER   1   ROW    13   COL     1   RATE   -0.289920    
 BOUNDARY      2   LAYER   1   ROW    14   COL     9   RATE    0.287882    



 STREAM LISTING     PERIOD      5   STEP        2

 LAYER ROW COL. STREAM  RCH.  FLOW INTO     FLOW TO   FLOW OUT OF   OVRLND.     DIRECT     STREAM       STREAM     STREAM     STREAM   STREAMBED  STREAMBED
                SEG.NO.  NO.  STRM. RCH.    AQUIFER    STRM. RCH.    RUNOFF     PRECIP       ET          HEAD       DEPTH      WIDTH   CONDCTNC.   GRADIENT

   1    1    1     1     1    1.0500E+01  1.5271E-01   1.0347E+01  0.000E+00  0.000E+00  0.000E+00  1.09396E+03  9.109E-01  8.677E+00  3.905E-02  1.304E+00
   1    2    2     1     2    1.0347E+01  2.3504E-01   1.0112E+01  0.000E+00  0.000E+00  0.000E+00  1.08896E+03  9.059E-01  8.597E+00  6.018E-02  1.302E+00
   1    3    3     1     3    1.0112E+01  1.9904E-01   9.9132E+00  0.000E+00  0.000E+00  0.000E+00  1.08332E+03  9.003E-01  8.505E+00  5.103E-02  1.300E+00
   1    3    4     1     4    9.9132E+00  1.8195E-01   9.7312E+00  0.000E+00  0.000E+00  0.000E+00  1.07830E+03  8.947E-01  8.417E+00  4.672E-02  1.298E+00
   1    4    5     2     1    7.7312E+00  2.8007E-01   7.4512E+00  0.000E+00  0.000E+00  0.000E+00  1.07252E+03  5.907E-01  1.200E+01  7.800E-02  1.197E+00
   1    5    6     2     2    7.4512E+00  2.1474E-01   7.2364E+00  0.000E+00  0.000E+00  0.000E+00  1.06709E+03  5.790E-01  1.200E+01  6.000E-02  1.193E+00
   1    6    6     2     3    7.2364E+00  2.1413E-01   7.0223E+00  0.000E+00  0.000E+00  0.000E+00  1.06236E+03  5.688E-01  1.200E+01  6.000E-02  1.190E+00
   1    7    6     2     4    7.0223E+00  2.1351E-01   6.8088E+00  0.000E+00  0.000E+00  0.000E+00  1.05763E+03  5.585E-01  1.200E+01  6.000E-02  1.186E+00
   1    8    6     2     5    6.8088E+00  2.1289E-01   6.5959E+00  0.000E+00  0.000E+00  0.000E+00  1.05291E+03  5.481E-01  1.200E+01  6.000E-02  1.183E+00
   1    3    5     3     1    2.0000E+00  2.8252E-01   1.7175E+00  0.000E+00  0.000E+00  0.000E+00  1.07555E+03  1.909E+00  9.636E+00  7.227E-02  1.955E+00
   1    3    6     3     2    1.7175E+00  2.4905E-01   1.4684E+00  0.000E+00  0.000E+00  0.000E+00  1.07264E+03  1.727E+00  8.909E+00  6.682E-02  1.864E+00
   1    3    7     3     3    1.4684E+00  1.9718E-01   1.2712E+00  0.000E+00  0.000E+00  0.000E+00  1.06987E+03  1.555E+00  8.218E+00  5.547E-02  1.777E+00
   1    4    8     3     4    1.2712E+00  2.2567E-01   1.0456E+00  0.000E+00  0.000E+00  0.000E+00  1.06682E+03  1.364E+00  7.455E+00  6.709E-02  1.682E+00
   1    5    8     3     5    1.0456E+00  1.5790E-01   8.8768E-01  0.000E+00  0.000E+00  0.000E+00  1.06362E+03  1.164E+00  6.655E+00  4.991E-02  1.582E+00
   1    6    8     3     6    8.8768E-01  5.5980E-02   8.3170E-01  0.000E+00  0.000E+00  0.000E+00  1.06158E+03  1.036E+00  6.145E+00  1.844E-02  1.518E+00
   1    5   10     4     1    1.0000E+01  9.0919E-02   9.9091E+00  0.000E+00  0.000E+00  0.000E+00  1.07836E+03  6.368E-01  1.000E+01  2.500E-02  1.212E+00
   1    5    9     4     2    9.9091E+00  1.8158E-01   9.7275E+00  0.000E+00  0.000E+00  0.000E+00  1.07154E+03  6.315E-01  1.000E+01  5.000E-02  1.211E+00
   1    6    8     4     3    9.7275E+00  1.2689E-01   9.6006E+00  0.000E+00  0.000E+00  0.000E+00  1.06381E+03  6.256E-01  1.000E+01  3.500E-02  1.209E+00
   1    6    8     5     1    1.0432E+01  2.2686E-01   1.0205E+01  0.000E+00  0.000E+00  0.000E+00  1.05868E+03  6.790E-01  1.542E+01  6.166E-02  1.226E+00
   1    7    7     5     2    1.0205E+01  2.7894E-01   9.9265E+00  0.000E+00  0.000E+00  0.000E+00  1.05417E+03  6.732E-01  1.519E+01  7.594E-02  1.224E+00
   1    8    7     5     3    9.9265E+00  1.9221E-01   9.7343E+00  0.000E+00  0.000E+00  0.000E+00  1.04992E+03  6.676E-01  1.497E+01  5.241E-02  1.223E+00
   1    8    6     5     4    9.7343E+00  1.3577E-01   9.5985E+00  0.000E+00  0.000E+00  0.000E+00  1.04691E+03  6.637E-01  1.482E+01  3.706E-02  1.221E+00
   1    9    6     6     1    1.6194E+01  2.3621E-01   1.5958E+01  0.000E+00  0.000E+00  0.000E+00  1.04366E+03  9.369E-01  1.200E+01  6.000E-02  1.312E+00
   1   10    7     6     2    1.5958E+01  2.3572E-01   1.5722E+01  0.000E+00  0.000E+00  0.000E+00  1.03911E+03  9.286E-01  1.200E+01  6.000E-02  1.310E+00
   1   11    7     6     3    1.5722E+01  2.3522E-01   1.5487E+01  0.000E+00  0.000E+00  0.000E+00  1.03456E+03  9.203E-01  1.200E+01  6.000E-02  1.307E+00
   1   12    7     6     4    1.5487E+01  2.3472E-01   1.5253E+01  0.000E+00  0.000E+00  0.000E+00  1.03000E+03  9.120E-01  1.200E+01  6.000E-02  1.304E+00
   1   13    7     6     5    1.5253E+01 -9.5692E-03   1.5262E+01  0.000E+00  0.000E+00  0.000E+00  1.02682E+03  9.079E-01  1.200E+01  2.400E-01 -1.329E-02
   1   14    9     7     1    1.5000E+02  1.3670E+00   1.4863E+02  0.000E+00  0.000E+00  0.000E+00  1.03987E+03  2.288E+00  5.529E+01  5.593E-01  8.147E-01
   1   13    8     7     2    1.4863E+02  1.9171E+00   1.4672E+02  0.000E+00  0.000E+00  0.000E+00  1.03478E+03  2.279E+00  5.526E+01  6.148E-01  1.039E+00
   1   13    7     7     3    1.4672E+02  1.5814E+00   1.4513E+02  0.000E+00  0.000E+00  0.000E+00  1.02969E+03  2.270E+00  5.521E+01  5.584E-01  9.440E-01
   1   13    6     8     1    1.6040E+02  9.6279E-01   1.5943E+02  0.000E+00  0.000E+00  0.000E+00  1.02476E+03  2.885E+00  4.184E+01  4.263E-01  7.528E-01
   1   13    5     8     2    1.5943E+02  2.1203E-01   1.5922E+02  0.000E+00  0.000E+00  0.000E+00  1.01851E+03  2.881E+00  4.178E+01  4.257E-01  1.660E-01
   1   13    4     8     3    1.5922E+02 -2.5063E+00   1.6173E+02  0.000E+00  0.000E+00  0.000E+00  1.01226E+03  2.889E+00  4.189E+01  4.269E+00 -1.957E-01
   1   13    3     8     4    1.6173E+02 -3.7856E+00   1.6551E+02  0.000E+00  0.000E+00  0.000E+00  1.00604E+03  2.910E+00  4.220E+01  4.300E+00 -2.935E-01
   1   13    2     8     5    1.6551E+02 -2.8086E+00   1.6832E+02  0.000E+00  0.000E+00  0.000E+00  9.99807E+02  2.932E+00  4.251E+01  4.332E+00 -2.161E-01
   1   13    1     8     6    1.6832E+02 -2.1075E+00   1.7043E+02  0.000E+00  0.000E+00  0.000E+00  9.94823E+02  2.948E+00  4.275E+01  2.614E+00 -2.688E-01
   1    8    6     9     1    4.4264E-07  0.0000E+00   4.4264E-07  0.000E+00  0.000E+00  0.000E+00  1.07875E+03  7.379E-05  4.000E+00  0.000E+00  1.000E+00
   1    8    5     9     2    4.4264E-07  0.0000E+00   4.4264E-07  0.000E+00  0.000E+00  0.000E+00  1.07825E+03  7.379E-05  4.000E+00  0.000E+00  1.000E+00



 UBDSV3 SAVING "           GW ET" ON UNIT  61 AT TIME STEP  2, STRESS PERIOD   5
 UBDSV3 SAVING "    UZF RECHARGE" ON UNIT  61 AT TIME STEP  2, STRESS PERIOD   5
 UBDSV3 SAVING " SURFACE LEAKAGE" ON UNIT  61 AT TIME STEP  2, STRESS PERIOD   5
 UBDSV3 SAVING "       HORT+DUNN" ON UNIT  61 AT TIME STEP  2, STRESS PERIOD   5
 UBDSV3 SAVING "  STORAGE CHANGE" ON UNIT  61 AT TIME STEP  2, STRESS PERIOD   5


UNSATURATED ZONE PACKAGE VOLUMETRIC BUDGET FOR  TIME STEP     2 STRESS PERIOD    5
  ------------------------------------------------------------------------------



     CUMULATIVE VOLUMES      L**3       RATES FOR THIS TIME STEP      L**3/T
     ------------------                 ------------------------

           IN:                                      IN:
           ---                                      ---
        INFILTRATION =    60086843.6487          INFILTRATION =           0.8475

          OUT:                                     OUT:
          ----                                     ----
              UZF ET =     7403799.9883                UZF ET =           4.5675
        UZF RECHARGE =       73224.0000          UZF RECHARGE =       0.0000E+00

            IN - OUT =    52609819.6603              IN - OUT =          -3.7200

          STORAGE:                                 STORAGE:
          --------                                 --------
      STORAGE CHANGE =    52630432.4009        STORAGE CHANGE =          -3.4849

 PERCENT DISCREPANCY IS DIFFERENCE BETWEEN IN-OUT MINUS CHANGE IN STORAGE
 DIVIDED BY THE AVERAGE OF IN AND OUT TIMES 100

 PERCENT DISCREPANCY =          -0.01     PERCENT DISCREPANCY =          -5.15






 

            AG WELLS      PERIOD    5   STEP   2
 AG WELL      1   LAYER   1   ROW     6   COL     4   RATE   -1.844331E-08
 AG WELL      2   LAYER   1   ROW     6   COL     5   RATE   -1.844331E-08
 AG WELL      3   LAYER   1   ROW     7   COL     4   RATE   -1.844331E-08
 AG WELL      4   LAYER   1   ROW     7   COL     5   RATE   -1.844331E-08
 AG WELL      5   LAYER   1   ROW     8   COL     4   RATE   -1.844331E-08
 AG WELL      6   LAYER   1   ROW     8   COL     5   RATE   -1.844331E-08
 
 

   DIVERSION SEGMENTS     PERIOD    5   STEP   2
 SEGMENT      9   RATE    4.426394E-07
 
 

        SW IRRIGATION     PERIOD    5   STEP   2
 SEGMENT      9   ROW     6   COL     4   RATE    5.533103E-08
 SEGMENT      9   ROW     6   COL     5   RATE    5.533103E-08
 SEGMENT      9   ROW     7   COL     4   RATE    5.533103E-08
 SEGMENT      9   ROW     7   COL     5   RATE    5.533103E-08
 SEGMENT      9   ROW     8   COL     4   RATE    5.533103E-08
 SEGMENT      9   ROW     8   COL     5   RATE    5.533103E-08
 
 

        GW IRRIGATION     PERIOD    5   STEP   2
 AG WELL      1   ROW     6   COL     4   RATE    1.844331E-08
 AG WELL      2   ROW     6   COL     5   RATE    1.844331E-08
 AG WELL      3   ROW     7   COL     4   RATE    1.844331E-08
 AG WELL      4   ROW     7   COL     5   RATE    1.844331E-08
 AG WELL      5   ROW     8   COL     4   RATE    1.844331E-08
 AG WELL      6   ROW     8   COL     5   RATE    1.844331E-08
 
1
  VOLUMETRIC BUDGET FOR AGRICULTURAL FIELDS AT  END OF TIME STEP    2, STRESS PERIOD   5
  ------------------------------------------------------------------------------

     CUMULATIVE VOLUMES      L**3       RATES FOR THIS TIME STEP      L**3/T
     ------------------                 ------------------------

           IN:                                      IN:
           ---                                      ---
               AG WELLS  =    52600000.0000                 AG WELLS  =       1.1066E-07
      DIVERSION SEGMENTS =      578240.1875        DIVERSION SEGMENTS =       4.4264E-07
           GW IRRIGATION =           0.0000             GW IRRIGATION =           0.0000
           SW IRRIGATION =           0.0000             SW IRRIGATION =           0.0000
        SYSTEM LOSSES GW =           0.0000          SYSTEM LOSSES GW =           0.0000
        SYSTEM LOSSES SW =           0.0000          SYSTEM LOSSES SW =           0.0000

                TOTAL IN =    53178240.0000                  TOTAL IN =       5.5330E-07

          OUT:                                     OUT:
          ----                                     ----
               AG WELLS  =           0.0000                 AG WELLS  =           0.0000
      DIVERSION SEGMENTS =           0.0000        DIVERSION SEGMENTS =           0.0000
           GW IRRIGATION =    52600000.0000             GW IRRIGATION =       1.1066E-07
           SW IRRIGATION =      578251.7500             SW IRRIGATION =       4.4265E-07
        SYSTEM LOSSES GW =           0.0000          SYSTEM LOSSES GW =           0.0000
        SYSTEM LOSSES SW =           0.0000          SYSTEM LOSSES SW =           0.0000

               TOTAL OUT =    53178252.0000                 TOTAL OUT =       5.5331E-07

                IN - OUT =         -12.0000                  IN - OUT =      -8.8107E-12

     PERCENT DISCREPANCY =          -0.00         PERCENT DISCREPANCY =          -0.00



1
  VOLUMETRIC BUDGET FOR ENTIRE MODEL AT END OF TIME STEP    2, STRESS PERIOD   5
  ------------------------------------------------------------------------------

     CUMULATIVE VOLUMES      L**3       RATES FOR THIS TIME STEP      L**3/T
     ------------------                 ------------------------

           IN:                                      IN:
           ---                                      ---
             STORAGE     =    58072184.0000               STORAGE     =          11.7676
       CONSTANT HEAD     =           0.0000         CONSTANT HEAD     =           0.0000
     HEAD DEP BOUNDS     =     2346258.2500       HEAD DEP BOUNDS     =           0.2879
      STREAM LEAKAGE     =    95426240.0000        STREAM LEAKAGE     =          11.2877
        UZF RECHARGE     =       73223.9531          UZF RECHARGE     =           0.0000
               GW ET     =           0.0000                 GW ET     =           0.0000
     SURFACE LEAKAGE     =           0.0000       SURFACE LEAKAGE     =           0.0000
           AG WELLS      =           0.0000             AG WELLS      =           0.0000

                TOTAL IN =   155917904.0000                  TOTAL IN =          23.3432

          OUT:                                     OUT:
          ----                                     ----
             STORAGE     =    18672308.0000               STORAGE     =          11.8357
       CONSTANT HEAD     =           0.0000         CONSTANT HEAD     =           0.0000
     HEAD DEP BOUNDS     =     2348540.7500       HEAD DEP BOUNDS     =           0.2899
      STREAM LEAKAGE     =    82300784.0000        STREAM LEAKAGE     =          11.2176
        UZF RECHARGE     =           0.0000          UZF RECHARGE     =           0.0000
               GW ET     =           0.0000                 GW ET     =           0.0000
     SURFACE LEAKAGE     =           0.0000       SURFACE LEAKAGE     =           0.0000
           AG WELLS      =    52600000.0000             AG WELLS      =       1.1066E-07

               TOTAL OUT =   155921632.0000                 TOTAL OUT =          23.3432

                IN - OUT =       -3728.0000                  IN - OUT =       3.8147E-06

     PERCENT DISCREPANCY =          -0.00         PERCENT DISCREPANCY =           0.00






         TIME SUMMARY AT END OF TIME STEP    2 IN STRESS PERIOD    5
                    SECONDS     MINUTES      HOURS       DAYS        YEARS
                    -----------------------------------------------------------
   TIME STEP LENGTH  87667.      1461.1      24.352      1.0147     2.77799E-03
 STRESS PERIOD TIME 1.75333E+05  2922.2      48.704      2.0293     5.55598E-03
         TOTAL TIME 8.15173E+06 1.35862E+05  2264.4      94.349     0.25831    
1
 
 SOLVING FOR HEAD 
                                                   Max.-Head-Change                         Max.-Flux-Residual
  Residual-Control   Outer-Iter.   Inner-Iter.     Column Row Layer    Maximum-Head-Change  Column Row Layer    Maximum-Flux-Residual          L2-NORM 
          0                 1           2             5    8     1       0.5067643268E-01       5    8    1         0.2791775842E+01      0.5993202897E+01
          0                 2           2             5    8     1      -0.4929393075E-02       5    8    1        -0.2791746629E+00      0.5992030356E+00
          0                 3           2             5    8     1       0.3356738076E-03       5    8    1         0.1954226268E-01      0.4193469572E-01
          0                 4           1             5    8     1      -0.1335677286E-04       5    8    1        -0.7992795138E-03      0.1714563768E-02

    ------------------------------------------------
       NWT REQUIRED            4 OUTER ITERATIONS 
       AND A TOTAL OF          7 INNER ITERATIONS.
    ------------------------------------------------

 OUTPUT CONTROL FOR STRESS PERIOD    5   TIME STEP    3
    PRINT BUDGET
    SAVE BUDGET
 UBDSV1 SAVING "         STORAGE" ON UNIT 102 AT TIME STEP  3, STRESS PERIOD   5
 UBDSV2 SAVING "   CONSTANT HEAD" ON UNIT 102 AT TIME STEP  3, STRESS PERIOD   5
 UBDSV1 SAVING "FLOW RIGHT FACE " ON UNIT 102 AT TIME STEP  3, STRESS PERIOD   5
 UBDSV1 SAVING "FLOW FRONT FACE " ON UNIT 102 AT TIME STEP  3, STRESS PERIOD   5

  HEAD DEP BOUNDS   PERIOD    5   STEP     3
 BOUNDARY      1   LAYER   1   ROW    13   COL     1   RATE   -0.289828    
 BOUNDARY      2   LAYER   1   ROW    14   COL     9   RATE    0.287883    



 STREAM LISTING     PERIOD      5   STEP        3

 LAYER ROW COL. STREAM  RCH.  FLOW INTO     FLOW TO   FLOW OUT OF   OVRLND.     DIRECT     STREAM       STREAM     STREAM     STREAM   STREAMBED  STREAMBED
                SEG.NO.  NO.  STRM. RCH.    AQUIFER    STRM. RCH.    RUNOFF     PRECIP       ET          HEAD       DEPTH      WIDTH   CONDCTNC.   GRADIENT

   1    1    1     1     1    1.0500E+01  1.5271E-01   1.0347E+01  0.000E+00  0.000E+00  0.000E+00  1.09396E+03  9.109E-01  8.677E+00  3.905E-02  1.304E+00
   1    2    2     1     2    1.0347E+01  2.3504E-01   1.0112E+01  0.000E+00  0.000E+00  0.000E+00  1.08896E+03  9.059E-01  8.597E+00  6.018E-02  1.302E+00
   1    3    3     1     3    1.0112E+01  1.9904E-01   9.9132E+00  0.000E+00  0.000E+00  0.000E+00  1.08332E+03  9.003E-01  8.505E+00  5.103E-02  1.300E+00
   1    3    4     1     4    9.9132E+00  1.8195E-01   9.7312E+00  0.000E+00  0.000E+00  0.000E+00  1.07830E+03  8.947E-01  8.417E+00  4.672E-02  1.298E+00
   1    4    5     2     1    7.7312E+00  2.8007E-01   7.4512E+00  0.000E+00  0.000E+00  0.000E+00  1.07252E+03  5.907E-01  1.200E+01  7.800E-02  1.197E+00
   1    5    6     2     2    7.4512E+00  2.1474E-01   7.2364E+00  0.000E+00  0.000E+00  0.000E+00  1.06709E+03  5.790E-01  1.200E+01  6.000E-02  1.193E+00
   1    6    6     2     3    7.2364E+00  2.1413E-01   7.0223E+00  0.000E+00  0.000E+00  0.000E+00  1.06236E+03  5.688E-01  1.200E+01  6.000E-02  1.190E+00
   1    7    6     2     4    7.0223E+00  2.1351E-01   6.8088E+00  0.000E+00  0.000E+00  0.000E+00  1.05763E+03  5.585E-01  1.200E+01  6.000E-02  1.186E+00
   1    8    6     2     5    6.8088E+00  2.1289E-01   6.5959E+00  0.000E+00  0.000E+00  0.000E+00  1.05291E+03  5.481E-01  1.200E+01  6.000E-02  1.183E+00
   1    3    5     3     1    2.0000E+00  2.8252E-01   1.7175E+00  0.000E+00  0.000E+00  0.000E+00  1.07555E+03  1.909E+00  9.636E+00  7.227E-02  1.955E+00
   1    3    6     3     2    1.7175E+00  2.4905E-01   1.4684E+00  0.000E+00  0.000E+00  0.000E+00  1.07264E+03  1.727E+00  8.909E+00  6.682E-02  1.864E+00
   1    3    7     3     3    1.4684E+00  1.9718E-01   1.2712E+00  0.000E+00  0.000E+00  0.000E+00  1.06987E+03  1.555E+00  8.218E+00  5.547E-02  1.777E+00
   1    4    8     3     4    1.2712E+00  2.2567E-01   1.0456E+00  0.000E+00  0.000E+00  0.000E+00  1.06682E+03  1.364E+00  7.455E+00  6.709E-02  1.682E+00
   1    5    8     3     5    1.0456E+00  1.5790E-01   8.8768E-01  0.000E+00  0.000E+00  0.000E+00  1.06362E+03  1.164E+00  6.655E+00  4.991E-02  1.582E+00
   1    6    8     3     6    8.8768E-01  5.5980E-02   8.3170E-01  0.000E+00  0.000E+00  0.000E+00  1.06158E+03  1.036E+00  6.145E+00  1.844E-02  1.518E+00
   1    5   10     4     1    1.0000E+01  9.0919E-02   9.9091E+00  0.000E+00  0.000E+00  0.000E+00  1.07836E+03  6.368E-01  1.000E+01  2.500E-02  1.212E+00
   1    5    9     4     2    9.9091E+00  1.8158E-01   9.7275E+00  0.000E+00  0.000E+00  0.000E+00  1.07154E+03  6.315E-01  1.000E+01  5.000E-02  1.211E+00
   1    6    8     4     3    9.7275E+00  1.2689E-01   9.6006E+00  0.000E+00  0.000E+00  0.000E+00  1.06381E+03  6.256E-01  1.000E+01  3.500E-02  1.209E+00
   1    6    8     5     1    1.0432E+01  2.2686E-01   1.0205E+01  0.000E+00  0.000E+00  0.000E+00  1.05868E+03  6.790E-01  1.542E+01  6.166E-02  1.226E+00
   1    7    7     5     2    1.0205E+01  2.7894E-01   9.9265E+00  0.000E+00  0.000E+00  0.000E+00  1.05417E+03  6.732E-01  1.519E+01  7.594E-02  1.224E+00
   1    8    7     5     3    9.9265E+00  1.9221E-01   9.7343E+00  0.000E+00  0.000E+00  0.000E+00  1.04992E+03  6.676E-01  1.497E+01  5.241E-02  1.223E+00
   1    8    6     5     4    9.7343E+00  1.3577E-01   9.5985E+00  0.000E+00  0.000E+00  0.000E+00  1.04691E+03  6.637E-01  1.482E+01  3.706E-02  1.221E+00
   1    9    6     6     1    1.6194E+01  2.3621E-01   1.5958E+01  0.000E+00  0.000E+00  0.000E+00  1.04366E+03  9.369E-01  1.200E+01  6.000E-02  1.312E+00
   1   10    7     6     2    1.5958E+01  2.3572E-01   1.5722E+01  0.000E+00  0.000E+00  0.000E+00  1.03911E+03  9.286E-01  1.200E+01  6.000E-02  1.310E+00
   1   11    7     6     3    1.5722E+01  2.3522E-01   1.5487E+01  0.000E+00  0.000E+00  0.000E+00  1.03456E+03  9.203E-01  1.200E+01  6.000E-02  1.307E+00
   1   12    7     6     4    1.5487E+01  2.3472E-01   1.5253E+01  0.000E+00  0.000E+00  0.000E+00  1.03000E+03  9.120E-01  1.200E+01  6.000E-02  1.304E+00
   1   13    7     6     5    1.5253E+01 -9.5856E-03   1.5262E+01  0.000E+00  0.000E+00  0.000E+00  1.02682E+03  9.079E-01  1.200E+01  2.400E-01 -1.331E-02
   1   14    9     7     1    1.5000E+02  1.3670E+00   1.4863E+02  0.000E+00  0.000E+00  0.000E+00  1.03987E+03  2.288E+00  5.529E+01  5.593E-01  8.147E-01
   1   13    8     7     2    1.4863E+02  1.9170E+00   1.4672E+02  0.000E+00  0.000E+00  0.000E+00  1.03478E+03  2.279E+00  5.526E+01  6.148E-01  1.039E+00
   1   13    7     7     3    1.4672E+02  1.5814E+00   1.4513E+02  0.000E+00  0.000E+00  0.000E+00  1.02969E+03  2.270E+00  5.521E+01  5.584E-01  9.440E-01
   1   13    6     8     1    1.6040E+02  9.6308E-01   1.5943E+02  0.000E+00  0.000E+00  0.000E+00  1.02476E+03  2.885E+00  4.184E+01  4.263E-01  7.530E-01
   1   13    5     8     2    1.5943E+02  2.1220E-01   1.5922E+02  0.000E+00  0.000E+00  0.000E+00  1.01851E+03  2.881E+00  4.178E+01  4.257E-01  1.661E-01
   1   13    4     8     3    1.5922E+02 -2.4872E+00   1.6171E+02  0.000E+00  0.000E+00  0.000E+00  1.01226E+03  2.889E+00  4.189E+01  4.269E+00 -1.942E-01
   1   13    3     8     4    1.6171E+02 -3.7686E+00   1.6548E+02  0.000E+00  0.000E+00  0.000E+00  1.00603E+03  2.910E+00  4.219E+01  4.300E+00 -2.922E-01
   1   13    2     8     5    1.6548E+02 -2.7902E+00   1.6827E+02  0.000E+00  0.000E+00  0.000E+00  9.99807E+02  2.932E+00  4.251E+01  4.332E+00 -2.147E-01
   1   13    1     8     6    1.6827E+02 -2.1019E+00   1.7037E+02  0.000E+00  0.000E+00  0.000E+00  9.94823E+02  2.948E+00  4.274E+01  2.613E+00 -2.681E-01
   1    8    6     9     1    4.4264E-07  0.0000E+00   4.4264E-07  0.000E+00  0.000E+00  0.000E+00  1.07875E+03  7.379E-05  4.000E+00  0.000E+00  1.000E+00
   1    8    5     9     2    4.4264E-07  0.0000E+00   4.4264E-07  0.000E+00  0.000E+00  0.000E+00  1.07825E+03  7.379E-05  4.000E+00  0.000E+00  1.000E+00



 UBDSV3 SAVING "           GW ET" ON UNIT  61 AT TIME STEP  3, STRESS PERIOD   5
 UBDSV3 SAVING "    UZF RECHARGE" ON UNIT  61 AT TIME STEP  3, STRESS PERIOD   5
 UBDSV3 SAVING " SURFACE LEAKAGE" ON UNIT  61 AT TIME STEP  3, STRESS PERIOD   5
 UBDSV3 SAVING "       HORT+DUNN" ON UNIT  61 AT TIME STEP  3, STRESS PERIOD   5
 UBDSV3 SAVING "  STORAGE CHANGE" ON UNIT  61 AT TIME STEP  3, STRESS PERIOD   5


UNSATURATED ZONE PACKAGE VOLUMETRIC BUDGET FOR  TIME STEP     3 STRESS PERIOD    5
  ------------------------------------------------------------------------------



     CUMULATIVE VOLUMES      L**3       RATES FOR THIS TIME STEP      L**3/T
     ------------------                 ------------------------

           IN:                                      IN:
           ---                                      ---
        INFILTRATION =    60161141.1833          INFILTRATION =           0.8475

          OUT:                                     OUT:
          ----                                     ----
              UZF ET =     7804217.4686                UZF ET =           4.5675
        UZF RECHARGE =       73224.0000          UZF RECHARGE =       0.0000E+00

            IN - OUT =    52283699.7147              IN - OUT =          -3.7200

          STORAGE:                                 STORAGE:
          --------                                 --------
      STORAGE CHANGE =    52304312.4458        STORAGE CHANGE =          -3.7200

 PERCENT DISCREPANCY IS DIFFERENCE BETWEEN IN-OUT MINUS CHANGE IN STORAGE
 DIVIDED BY THE AVERAGE OF IN AND OUT TIMES 100

 PERCENT DISCREPANCY =          -0.01     PERCENT DISCREPANCY =           0.00






 

            AG WELLS      PERIOD    5   STEP   3
 AG WELL      1   LAYER   1   ROW     6   COL     4   RATE   -1.844331E-08
 AG WELL      2   LAYER   1   ROW     6   COL     5   RATE   -1.844331E-08
 AG WELL      3   LAYER   1   ROW     7   COL     4   RATE   -1.844331E-08
 AG WELL      4   LAYER   1   ROW     7   COL     5   RATE   -1.844331E-08
 AG WELL      5   LAYER   1   ROW     8   COL     4   RATE   -1.844331E-08
 AG WELL      6   LAYER   1   ROW     8   COL     5   RATE   -1.844331E-08
 
 

   DIVERSION SEGMENTS     PERIOD    5   STEP   3
 SEGMENT      9   RATE    4.426394E-07
 
 

        SW IRRIGATION     PERIOD    5   STEP   3
 SEGMENT      9   ROW     6   COL     4   RATE    5.533103E-08
 SEGMENT      9   ROW     6   COL     5   RATE    5.533103E-08
 SEGMENT      9   ROW     7   COL     4   RATE    5.533103E-08
 SEGMENT      9   ROW     7   COL     5   RATE    5.533103E-08
 SEGMENT      9   ROW     8   COL     4   RATE    5.533103E-08
 SEGMENT      9   ROW     8   COL     5   RATE    5.533103E-08
 
 

        GW IRRIGATION     PERIOD    5   STEP   3
 AG WELL      1   ROW     6   COL     4   RATE    1.844331E-08
 AG WELL      2   ROW     6   COL     5   RATE    1.844331E-08
 AG WELL      3   ROW     7   COL     4   RATE    1.844331E-08
 AG WELL      4   ROW     7   COL     5   RATE    1.844331E-08
 AG WELL      5   ROW     8   COL     4   RATE    1.844331E-08
 AG WELL      6   ROW     8   COL     5   RATE    1.844331E-08
 
1
  VOLUMETRIC BUDGET FOR AGRICULTURAL FIELDS AT  END OF TIME STEP    3, STRESS PERIOD   5
  ------------------------------------------------------------------------------

     CUMULATIVE VOLUMES      L**3       RATES FOR THIS TIME STEP      L**3/T
     ------------------                 ------------------------

           IN:                                      IN:
           ---                                      ---
               AG WELLS  =    52600000.0000                 AG WELLS  =       1.1066E-07
      DIVERSION SEGMENTS =      578240.2500        DIVERSION SEGMENTS =       4.4264E-07
           GW IRRIGATION =           0.0000             GW IRRIGATION =           0.0000
           SW IRRIGATION =           0.0000             SW IRRIGATION =           0.0000
        SYSTEM LOSSES GW =           0.0000          SYSTEM LOSSES GW =           0.0000
        SYSTEM LOSSES SW =           0.0000          SYSTEM LOSSES SW =           0.0000

                TOTAL IN =    53178240.0000                  TOTAL IN =       5.5330E-07

          OUT:                                     OUT:
          ----                                     ----
               AG WELLS  =           0.0000                 AG WELLS  =           0.0000
      DIVERSION SEGMENTS =           0.0000        DIVERSION SEGMENTS =           0.0000
           GW IRRIGATION =    52600000.0000             GW IRRIGATION =       1.1066E-07
           SW IRRIGATION =      578251.8125             SW IRRIGATION =       4.4265E-07
        SYSTEM LOSSES GW =           0.0000          SYSTEM LOSSES GW =           0.0000
        SYSTEM LOSSES SW =           0.0000          SYSTEM LOSSES SW =           0.0000

               TOTAL OUT =    53178252.0000                 TOTAL OUT =       5.5331E-07

                IN - OUT =         -12.0000                  IN - OUT =      -8.8107E-12

     PERCENT DISCREPANCY =          -0.00         PERCENT DISCREPANCY =          -0.00



1
  VOLUMETRIC BUDGET FOR ENTIRE MODEL AT END OF TIME STEP    3, STRESS PERIOD   5
  ------------------------------------------------------------------------------

     CUMULATIVE VOLUMES      L**3       RATES FOR THIS TIME STEP      L**3/T
     ------------------                 ------------------------

           IN:                                      IN:
           ---                                      ---
             STORAGE     =    59057984.0000               STORAGE     =          11.2448
       CONSTANT HEAD     =           0.0000         CONSTANT HEAD     =           0.0000
     HEAD DEP BOUNDS     =     2371496.0000       HEAD DEP BOUNDS     =           0.2879
      STREAM LEAKAGE     =    96415832.0000        STREAM LEAKAGE     =          11.2881
        UZF RECHARGE     =       73223.9531          UZF RECHARGE     =           0.0000
               GW ET     =           0.0000                 GW ET     =           0.0000
     SURFACE LEAKAGE     =           0.0000       SURFACE LEAKAGE     =           0.0000
           AG WELLS      =           0.0000             AG WELLS      =           0.0000

                TOTAL IN =   157918528.0000                  TOTAL IN =          22.8208

          OUT:                                     OUT:
          ----                                     ----
             STORAGE     =    19669376.0000               STORAGE     =          11.3734
       CONSTANT HEAD     =           0.0000         CONSTANT HEAD     =           0.0000
     HEAD DEP BOUNDS     =     2373949.0000       HEAD DEP BOUNDS     =           0.2898
      STREAM LEAKAGE     =    83278936.0000        STREAM LEAKAGE     =          11.1576
        UZF RECHARGE     =           0.0000          UZF RECHARGE     =           0.0000
               GW ET     =           0.0000                 GW ET     =           0.0000
     SURFACE LEAKAGE     =           0.0000       SURFACE LEAKAGE     =           0.0000
           AG WELLS      =    52600000.0000             AG WELLS      =       1.1066E-07

               TOTAL OUT =   157922256.0000                 TOTAL OUT =          22.8208

                IN - OUT =       -3728.0000                  IN - OUT =       7.6294E-06

     PERCENT DISCREPANCY =          -0.00         PERCENT DISCREPANCY =           0.00






         TIME SUMMARY AT END OF TIME STEP    3 IN STRESS PERIOD    5
                    SECONDS     MINUTES      HOURS       DAYS        YEARS
                    -----------------------------------------------------------
   TIME STEP LENGTH  87667.      1461.1      24.352      1.0147     2.77799E-03
 STRESS PERIOD TIME 2.63000E+05  4383.3      73.056      3.0440     8.33397E-03
         TOTAL TIME 8.23939E+06 1.37323E+05  2288.7      95.363     0.26109    
1
 
 SOLVING FOR HEAD 
                                                   Max.-Head-Change                         Max.-Flux-Residual
  Residual-Control   Outer-Iter.   Inner-Iter.     Column Row Layer    Maximum-Head-Change  Column Row Layer    Maximum-Flux-Residual          L2-NORM 
          0                 1           2             5    8     1       0.4784709263E-01       5    8    1         0.2633478030E+01      0.5704630027E+01
          0                 2           2             5    8     1      -0.4654181343E-02       5    8    1        -0.2633452379E+00      0.5703296992E+00
          0                 3           2             5    8     1       0.3169328588E-03       5    8    1         0.1843419906E-01      0.3991446750E-01
          0                 4           1             5    8     1      -0.1261105328E-04       5    8    1        -0.7539596709E-03      0.1632082021E-02

    ------------------------------------------------
       NWT REQUIRED            4 OUTER ITERATIONS 
       AND A TOTAL OF          7 INNER ITERATIONS.
    ------------------------------------------------

 OUTPUT CONTROL FOR STRESS PERIOD    5   TIME STEP    4
    PRINT BUDGET
    SAVE BUDGET
 UBDSV1 SAVING "         STORAGE" ON UNIT 102 AT TIME STEP  4, STRESS PERIOD   5
 UBDSV2 SAVING "   CONSTANT HEAD" ON UNIT 102 AT TIME STEP  4, STRESS PERIOD   5
 UBDSV1 SAVING "FLOW RIGHT FACE " ON UNIT 102 AT TIME STEP  4, STRESS PERIOD   5
 UBDSV1 SAVING "FLOW FRONT FACE " ON UNIT 102 AT TIME STEP  4, STRESS PERIOD   5

  HEAD DEP BOUNDS   PERIOD    5   STEP     4
 BOUNDARY      1   LAYER   1   ROW    13   COL     1   RATE   -0.289740    
 BOUNDARY      2   LAYER   1   ROW    14   COL     9   RATE    0.287884    



 STREAM LISTING     PERIOD      5   STEP        4

 LAYER ROW COL. STREAM  RCH.  FLOW INTO     FLOW TO   FLOW OUT OF   OVRLND.     DIRECT     STREAM       STREAM     STREAM     STREAM   STREAMBED  STREAMBED
                SEG.NO.  NO.  STRM. RCH.    AQUIFER    STRM. RCH.    RUNOFF     PRECIP       ET          HEAD       DEPTH      WIDTH   CONDCTNC.   GRADIENT

   1    1    1     1     1    1.0500E+01  1.5271E-01   1.0347E+01  0.000E+00  0.000E+00  0.000E+00  1.09396E+03  9.109E-01  8.677E+00  3.905E-02  1.304E+00
   1    2    2     1     2    1.0347E+01  2.3504E-01   1.0112E+01  0.000E+00  0.000E+00  0.000E+00  1.08896E+03  9.059E-01  8.597E+00  6.018E-02  1.302E+00
   1    3    3     1     3    1.0112E+01  1.9904E-01   9.9132E+00  0.000E+00  0.000E+00  0.000E+00  1.08332E+03  9.003E-01  8.505E+00  5.103E-02  1.300E+00
   1    3    4     1     4    9.9132E+00  1.8195E-01   9.7312E+00  0.000E+00  0.000E+00  0.000E+00  1.07830E+03  8.947E-01  8.417E+00  4.672E-02  1.298E+00
   1    4    5     2     1    7.7312E+00  2.8007E-01   7.4512E+00  0.000E+00  0.000E+00  0.000E+00  1.07252E+03  5.907E-01  1.200E+01  7.800E-02  1.197E+00
   1    5    6     2     2    7.4512E+00  2.1474E-01   7.2364E+00  0.000E+00  0.000E+00  0.000E+00  1.06709E+03  5.790E-01  1.200E+01  6.000E-02  1.193E+00
   1    6    6     2     3    7.2364E+00  2.1413E-01   7.0223E+00  0.000E+00  0.000E+00  0.000E+00  1.06236E+03  5.688E-01  1.200E+01  6.000E-02  1.190E+00
   1    7    6     2     4    7.0223E+00  2.1351E-01   6.8088E+00  0.000E+00  0.000E+00  0.000E+00  1.05763E+03  5.585E-01  1.200E+01  6.000E-02  1.186E+00
   1    8    6     2     5    6.8088E+00  2.1289E-01   6.5959E+00  0.000E+00  0.000E+00  0.000E+00  1.05291E+03  5.481E-01  1.200E+01  6.000E-02  1.183E+00
   1    3    5     3     1    2.0000E+00  2.8252E-01   1.7175E+00  0.000E+00  0.000E+00  0.000E+00  1.07555E+03  1.909E+00  9.636E+00  7.227E-02  1.955E+00
   1    3    6     3     2    1.7175E+00  2.4905E-01   1.4684E+00  0.000E+00  0.000E+00  0.000E+00  1.07264E+03  1.727E+00  8.909E+00  6.682E-02  1.864E+00
   1    3    7     3     3    1.4684E+00  1.9718E-01   1.2712E+00  0.000E+00  0.000E+00  0.000E+00  1.06987E+03  1.555E+00  8.218E+00  5.547E-02  1.777E+00
   1    4    8     3     4    1.2712E+00  2.2567E-01   1.0456E+00  0.000E+00  0.000E+00  0.000E+00  1.06682E+03  1.364E+00  7.455E+00  6.709E-02  1.682E+00
   1    5    8     3     5    1.0456E+00  1.5790E-01   8.8768E-01  0.000E+00  0.000E+00  0.000E+00  1.06362E+03  1.164E+00  6.655E+00  4.991E-02  1.582E+00
   1    6    8     3     6    8.8768E-01  5.5980E-02   8.3170E-01  0.000E+00  0.000E+00  0.000E+00  1.06158E+03  1.036E+00  6.145E+00  1.844E-02  1.518E+00
   1    5   10     4     1    1.0000E+01  9.0919E-02   9.9091E+00  0.000E+00  0.000E+00  0.000E+00  1.07836E+03  6.368E-01  1.000E+01  2.500E-02  1.212E+00
   1    5    9     4     2    9.9091E+00  1.8158E-01   9.7275E+00  0.000E+00  0.000E+00  0.000E+00  1.07154E+03  6.315E-01  1.000E+01  5.000E-02  1.211E+00
   1    6    8     4     3    9.7275E+00  1.2689E-01   9.6006E+00  0.000E+00  0.000E+00  0.000E+00  1.06381E+03  6.256E-01  1.000E+01  3.500E-02  1.209E+00
   1    6    8     5     1    1.0432E+01  2.2686E-01   1.0205E+01  0.000E+00  0.000E+00  0.000E+00  1.05868E+03  6.790E-01  1.542E+01  6.166E-02  1.226E+00
   1    7    7     5     2    1.0205E+01  2.7894E-01   9.9265E+00  0.000E+00  0.000E+00  0.000E+00  1.05417E+03  6.732E-01  1.519E+01  7.594E-02  1.224E+00
   1    8    7     5     3    9.9265E+00  1.9221E-01   9.7343E+00  0.000E+00  0.000E+00  0.000E+00  1.04992E+03  6.676E-01  1.497E+01  5.241E-02  1.223E+00
   1    8    6     5     4    9.7343E+00  1.3577E-01   9.5985E+00  0.000E+00  0.000E+00  0.000E+00  1.04691E+03  6.637E-01  1.482E+01  3.706E-02  1.221E+00
   1    9    6     6     1    1.6194E+01  2.3621E-01   1.5958E+01  0.000E+00  0.000E+00  0.000E+00  1.04366E+03  9.369E-01  1.200E+01  6.000E-02  1.312E+00
   1   10    7     6     2    1.5958E+01  2.3572E-01   1.5722E+01  0.000E+00  0.000E+00  0.000E+00  1.03911E+03  9.286E-01  1.200E+01  6.000E-02  1.310E+00
   1   11    7     6     3    1.5722E+01  2.3522E-01   1.5487E+01  0.000E+00  0.000E+00  0.000E+00  1.03456E+03  9.203E-01  1.200E+01  6.000E-02  1.307E+00
   1   12    7     6     4    1.5487E+01  2.3472E-01   1.5253E+01  0.000E+00  0.000E+00  0.000E+00  1.03000E+03  9.120E-01  1.200E+01  6.000E-02  1.304E+00
   1   13    7     6     5    1.5253E+01 -9.6000E-03   1.5262E+01  0.000E+00  0.000E+00  0.000E+00  1.02682E+03  9.079E-01  1.200E+01  2.400E-01 -1.333E-02
   1   14    9     7     1    1.5000E+02  1.3670E+00   1.4863E+02  0.000E+00  0.000E+00  0.000E+00  1.03987E+03  2.288E+00  5.529E+01  5.593E-01  8.147E-01
   1   13    8     7     2    1.4863E+02  1.9170E+00   1.4672E+02  0.000E+00  0.000E+00  0.000E+00  1.03478E+03  2.279E+00  5.526E+01  6.148E-01  1.039E+00
   1   13    7     7     3    1.4672E+02  1.5813E+00   1.4513E+02  0.000E+00  0.000E+00  0.000E+00  1.02969E+03  2.270E+00  5.521E+01  5.584E-01  9.440E-01
   1   13    6     8     1    1.6040E+02  9.6335E-01   1.5943E+02  0.000E+00  0.000E+00  0.000E+00  1.02476E+03  2.885E+00  4.184E+01  4.263E-01  7.532E-01
   1   13    5     8     2    1.5943E+02  2.1239E-01   1.5922E+02  0.000E+00  0.000E+00  0.000E+00  1.01851E+03  2.881E+00  4.178E+01  4.257E-01  1.663E-01
   1   13    4     8     3    1.5922E+02 -2.4699E+00   1.6169E+02  0.000E+00  0.000E+00  0.000E+00  1.01226E+03  2.889E+00  4.189E+01  4.269E+00 -1.929E-01
   1   13    3     8     4    1.6169E+02 -3.7529E+00   1.6544E+02  0.000E+00  0.000E+00  0.000E+00  1.00603E+03  2.910E+00  4.219E+01  4.300E+00 -2.910E-01
   1   13    2     8     5    1.6544E+02 -2.7732E+00   1.6822E+02  0.000E+00  0.000E+00  0.000E+00  9.99806E+02  2.931E+00  4.251E+01  4.331E+00 -2.134E-01
   1   13    1     8     6    1.6822E+02 -2.0965E+00   1.7031E+02  0.000E+00  0.000E+00  0.000E+00  9.94822E+02  2.947E+00  4.274E+01  2.613E+00 -2.674E-01
   1    8    6     9     1    4.4264E-07  0.0000E+00   4.4264E-07  0.000E+00  0.000E+00  0.000E+00  1.07875E+03  7.379E-05  4.000E+00  0.000E+00  1.000E+00
   1    8    5     9     2    4.4264E-07  0.0000E+00   4.4264E-07  0.000E+00  0.000E+00  0.000E+00  1.07825E+03  7.379E-05  4.000E+00  0.000E+00  1.000E+00



 UBDSV3 SAVING "           GW ET" ON UNIT  61 AT TIME STEP  4, STRESS PERIOD   5
 UBDSV3 SAVING "    UZF RECHARGE" ON UNIT  61 AT TIME STEP  4, STRESS PERIOD   5
 UBDSV3 SAVING " SURFACE LEAKAGE" ON UNIT  61 AT TIME STEP  4, STRESS PERIOD   5
 UBDSV3 SAVING "       HORT+DUNN" ON UNIT  61 AT TIME STEP  4, STRESS PERIOD   5
 UBDSV3 SAVING "  STORAGE CHANGE" ON UNIT  61 AT TIME STEP  4, STRESS PERIOD   5


UNSATURATED ZONE PACKAGE VOLUMETRIC BUDGET FOR  TIME STEP     4 STRESS PERIOD    5
  ------------------------------------------------------------------------------



     CUMULATIVE VOLUMES      L**3       RATES FOR THIS TIME STEP      L**3/T
     ------------------                 ------------------------

           IN:                                      IN:
           ---                                      ---
        INFILTRATION =    60235438.7178          INFILTRATION =           0.8475

          OUT:                                     OUT:
          ----                                     ----
              UZF ET =     8204634.9489                UZF ET =           4.5675
        UZF RECHARGE =       73224.0000          UZF RECHARGE =       0.0000E+00

            IN - OUT =    51957579.7690              IN - OUT =          -3.7200

          STORAGE:                                 STORAGE:
          --------                                 --------
      STORAGE CHANGE =    51978192.4903        STORAGE CHANGE =          -3.7200

 PERCENT DISCREPANCY IS DIFFERENCE BETWEEN IN-OUT MINUS CHANGE IN STORAGE
 DIVIDED BY THE AVERAGE OF IN AND OUT TIMES 100

 PERCENT DISCREPANCY =          -0.01     PERCENT DISCREPANCY =           0.00






 

            AG WELLS      PERIOD    5   STEP   4
 AG WELL      1   LAYER   1   ROW     6   COL     4   RATE   -1.844331E-08
 AG WELL      2   LAYER   1   ROW     6   COL     5   RATE   -1.844331E-08
 AG WELL      3   LAYER   1   ROW     7   COL     4   RATE   -1.844331E-08
 AG WELL      4   LAYER   1   ROW     7   COL     5   RATE   -1.844331E-08
 AG WELL      5   LAYER   1   ROW     8   COL     4   RATE   -1.844331E-08
 AG WELL      6   LAYER   1   ROW     8   COL     5   RATE   -1.844331E-08
 
 

   DIVERSION SEGMENTS     PERIOD    5   STEP   4
 SEGMENT      9   RATE    4.426394E-07
 
 

        SW IRRIGATION     PERIOD    5   STEP   4
 SEGMENT      9   ROW     6   COL     4   RATE    5.533103E-08
 SEGMENT      9   ROW     6   COL     5   RATE    5.533103E-08
 SEGMENT      9   ROW     7   COL     4   RATE    5.533103E-08
 SEGMENT      9   ROW     7   COL     5   RATE    5.533103E-08
 SEGMENT      9   ROW     8   COL     4   RATE    5.533103E-08
 SEGMENT      9   ROW     8   COL     5   RATE    5.533103E-08
 
 

        GW IRRIGATION     PERIOD    5   STEP   4
 AG WELL      1   ROW     6   COL     4   RATE    1.844331E-08
 AG WELL      2   ROW     6   COL     5   RATE    1.844331E-08
 AG WELL      3   ROW     7   COL     4   RATE    1.844331E-08
 AG WELL      4   ROW     7   COL     5   RATE    1.844331E-08
 AG WELL      5   ROW     8   COL     4   RATE    1.844331E-08
 AG WELL      6   ROW     8   COL     5   RATE    1.844331E-08
 
1
  VOLUMETRIC BUDGET FOR AGRICULTURAL FIELDS AT  END OF TIME STEP    4, STRESS PERIOD   5
  ------------------------------------------------------------------------------

     CUMULATIVE VOLUMES      L**3       RATES FOR THIS TIME STEP      L**3/T
     ------------------                 ------------------------

           IN:                                      IN:
           ---                                      ---
               AG WELLS  =    52600000.0000                 AG WELLS  =       1.1066E-07
      DIVERSION SEGMENTS =      578240.3125        DIVERSION SEGMENTS =       4.4264E-07
           GW IRRIGATION =           0.0000             GW IRRIGATION =           0.0000
           SW IRRIGATION =           0.0000             SW IRRIGATION =           0.0000
        SYSTEM LOSSES GW =           0.0000          SYSTEM LOSSES GW =           0.0000
        SYSTEM LOSSES SW =           0.0000          SYSTEM LOSSES SW =           0.0000

                TOTAL IN =    53178240.0000                  TOTAL IN =       5.5330E-07

          OUT:                                     OUT:
          ----                                     ----
               AG WELLS  =           0.0000                 AG WELLS  =           0.0000
      DIVERSION SEGMENTS =           0.0000        DIVERSION SEGMENTS =           0.0000
           GW IRRIGATION =    52600000.0000             GW IRRIGATION =       1.1066E-07
           SW IRRIGATION =      578251.8750             SW IRRIGATION =       4.4265E-07
        SYSTEM LOSSES GW =           0.0000          SYSTEM LOSSES GW =           0.0000
        SYSTEM LOSSES SW =           0.0000          SYSTEM LOSSES SW =           0.0000

               TOTAL OUT =    53178252.0000                 TOTAL OUT =       5.5331E-07

                IN - OUT =         -12.0000                  IN - OUT =      -8.8107E-12

     PERCENT DISCREPANCY =          -0.00         PERCENT DISCREPANCY =          -0.00



1
  VOLUMETRIC BUDGET FOR ENTIRE MODEL AT END OF TIME STEP    4, STRESS PERIOD   5
  ------------------------------------------------------------------------------

     CUMULATIVE VOLUMES      L**3       RATES FOR THIS TIME STEP      L**3/T
     ------------------                 ------------------------

           IN:                                      IN:
           ---                                      ---
             STORAGE     =    60003632.0000               STORAGE     =          10.7869
       CONSTANT HEAD     =           0.0000         CONSTANT HEAD     =           0.0000
     HEAD DEP BOUNDS     =     2396733.7500       HEAD DEP BOUNDS     =           0.2879
      STREAM LEAKAGE     =    97405456.0000        STREAM LEAKAGE     =          11.2885
        UZF RECHARGE     =       73223.9531          UZF RECHARGE     =           0.0000
               GW ET     =           0.0000                 GW ET     =           0.0000
     SURFACE LEAKAGE     =           0.0000       SURFACE LEAKAGE     =           0.0000
           AG WELLS      =           0.0000             AG WELLS      =           0.0000

                TOTAL IN =   159879040.0000                  TOTAL IN =          22.3632

          OUT:                                     OUT:
          ----                                     ----
             STORAGE     =    20631192.0000               STORAGE     =          10.9713
       CONSTANT HEAD     =           0.0000         CONSTANT HEAD     =           0.0000
     HEAD DEP BOUNDS     =     2399349.5000       HEAD DEP BOUNDS     =           0.2897
      STREAM LEAKAGE     =    84252224.0000        STREAM LEAKAGE     =          11.1022
        UZF RECHARGE     =           0.0000          UZF RECHARGE     =           0.0000
               GW ET     =           0.0000                 GW ET     =           0.0000
     SURFACE LEAKAGE     =           0.0000       SURFACE LEAKAGE     =           0.0000
           AG WELLS      =    52600000.0000             AG WELLS      =       1.1066E-07

               TOTAL OUT =   159882768.0000                 TOTAL OUT =          22.3632

                IN - OUT =       -3728.0000                  IN - OUT =       5.7220E-06

     PERCENT DISCREPANCY =          -0.00         PERCENT DISCREPANCY =           0.00






         TIME SUMMARY AT END OF TIME STEP    4 IN STRESS PERIOD    5
                    SECONDS     MINUTES      HOURS       DAYS        YEARS
                    -----------------------------------------------------------
   TIME STEP LENGTH  87667.      1461.1      24.352      1.0147     2.77799E-03
 STRESS PERIOD TIME 3.50667E+05  5844.4      97.407      4.0586     1.11120E-02
         TOTAL TIME 8.32706E+06 1.38784E+05  2313.1      96.378     0.26387    
1
 
 SOLVING FOR HEAD 
                                                   Max.-Head-Change                         Max.-Flux-Residual
  Residual-Control   Outer-Iter.   Inner-Iter.     Column Row Layer    Maximum-Head-Change  Column Row Layer    Maximum-Flux-Residual          L2-NORM 
          0                 1           2             5    8     1       0.4521720650E-01       5    8    1         0.2486440741E+01      0.5436066298E+01
          0                 2           2             5    8     1      -0.4398368661E-02       5    8    1        -0.2486418132E+00      0.5435123734E+00
          0                 3           2             5    8     1       0.2995129213E-03       5    8    1         0.1740495601E-01      0.3803824546E-01
          0                 4           1             5    8     1      -0.1191789786E-04       5    8    1        -0.7118635865E-03      0.1555385767E-02

    ------------------------------------------------
       NWT REQUIRED            4 OUTER ITERATIONS 
       AND A TOTAL OF          7 INNER ITERATIONS.
    ------------------------------------------------

 NO OUTPUT CONTROL FOR STRESS PERIOD    5   TIME STEP    5
 
 SOLVING FOR HEAD 
                                                   Max.-Head-Change                         Max.-Flux-Residual
  Residual-Control   Outer-Iter.   Inner-Iter.     Column Row Layer    Maximum-Head-Change  Column Row Layer    Maximum-Flux-Residual          L2-NORM 
          0                 1           2             5    8     1       0.4277131241E-01       5    8    1         0.2349784365E+01      0.5185868763E+01
          0                 2           2             5    8     1      -0.4160453254E-02       5    8    1        -0.2349764177E+00      0.5185019234E+00
          0                 3           2             5    8     1       0.2833117277E-03       5    8    1         0.1644837545E-01      0.3628824340E-01
          0                 4           1             5    8     1      -0.1127323764E-04       5    8    1        -0.6727394014E-03      0.1483746355E-02

    ------------------------------------------------
       NWT REQUIRED            4 OUTER ITERATIONS 
       AND A TOTAL OF          7 INNER ITERATIONS.
    ------------------------------------------------

 OUTPUT CONTROL FOR STRESS PERIOD    5   TIME STEP    6
    PRINT BUDGET
    SAVE BUDGET
 UBDSV1 SAVING "         STORAGE" ON UNIT 102 AT TIME STEP  6, STRESS PERIOD   5
 UBDSV2 SAVING "   CONSTANT HEAD" ON UNIT 102 AT TIME STEP  6, STRESS PERIOD   5
 UBDSV1 SAVING "FLOW RIGHT FACE " ON UNIT 102 AT TIME STEP  6, STRESS PERIOD   5
 UBDSV1 SAVING "FLOW FRONT FACE " ON UNIT 102 AT TIME STEP  6, STRESS PERIOD   5

  HEAD DEP BOUNDS   PERIOD    5   STEP     6
 BOUNDARY      1   LAYER   1   ROW    13   COL     1   RATE   -0.289573    
 BOUNDARY      2   LAYER   1   ROW    14   COL     9   RATE    0.287886    



 STREAM LISTING     PERIOD      5   STEP        6

 LAYER ROW COL. STREAM  RCH.  FLOW INTO     FLOW TO   FLOW OUT OF   OVRLND.     DIRECT     STREAM       STREAM     STREAM     STREAM   STREAMBED  STREAMBED
                SEG.NO.  NO.  STRM. RCH.    AQUIFER    STRM. RCH.    RUNOFF     PRECIP       ET          HEAD       DEPTH      WIDTH   CONDCTNC.   GRADIENT

   1    1    1     1     1    1.0500E+01  1.5271E-01   1.0347E+01  0.000E+00  0.000E+00  0.000E+00  1.09396E+03  9.109E-01  8.677E+00  3.905E-02  1.304E+00
   1    2    2     1     2    1.0347E+01  2.3505E-01   1.0112E+01  0.000E+00  0.000E+00  0.000E+00  1.08896E+03  9.059E-01  8.597E+00  6.018E-02  1.302E+00
   1    3    3     1     3    1.0112E+01  1.9904E-01   9.9132E+00  0.000E+00  0.000E+00  0.000E+00  1.08332E+03  9.003E-01  8.505E+00  5.103E-02  1.300E+00
   1    3    4     1     4    9.9132E+00  1.8195E-01   9.7313E+00  0.000E+00  0.000E+00  0.000E+00  1.07830E+03  8.947E-01  8.417E+00  4.672E-02  1.298E+00
   1    4    5     2     1    7.7313E+00  2.8007E-01   7.4512E+00  0.000E+00  0.000E+00  0.000E+00  1.07252E+03  5.907E-01  1.200E+01  7.800E-02  1.197E+00
   1    5    6     2     2    7.4512E+00  2.1474E-01   7.2365E+00  0.000E+00  0.000E+00  0.000E+00  1.06709E+03  5.790E-01  1.200E+01  6.000E-02  1.193E+00
   1    6    6     2     3    7.2365E+00  2.1413E-01   7.0224E+00  0.000E+00  0.000E+00  0.000E+00  1.06236E+03  5.688E-01  1.200E+01  6.000E-02  1.190E+00
   1    7    6     2     4    7.0224E+00  2.1351E-01   6.8088E+00  0.000E+00  0.000E+00  0.000E+00  1.05763E+03  5.585E-01  1.200E+01  6.000E-02  1.186E+00
   1    8    6     2     5    6.8088E+00  2.1289E-01   6.5960E+00  0.000E+00  0.000E+00  0.000E+00  1.05291E+03  5.481E-01  1.200E+01  6.000E-02  1.183E+00
   1    3    5     3     1    2.0000E+00  2.8252E-01   1.7175E+00  0.000E+00  0.000E+00  0.000E+00  1.07555E+03  1.909E+00  9.636E+00  7.227E-02  1.955E+00
   1    3    6     3     2    1.7175E+00  2.4905E-01   1.4684E+00  0.000E+00  0.000E+00  0.000E+00  1.07264E+03  1.727E+00  8.909E+00  6.682E-02  1.864E+00
   1    3    7     3     3    1.4684E+00  1.9718E-01   1.2712E+00  0.000E+00  0.000E+00  0.000E+00  1.06987E+03  1.555E+00  8.218E+00  5.547E-02  1.777E+00
   1    4    8     3     4    1.2712E+00  2.2567E-01   1.0456E+00  0.000E+00  0.000E+00  0.000E+00  1.06682E+03  1.364E+00  7.455E+00  6.709E-02  1.682E+00
   1    5    8     3     5    1.0456E+00  1.5790E-01   8.8768E-01  0.000E+00  0.000E+00  0.000E+00  1.06362E+03  1.164E+00  6.655E+00  4.991E-02  1.582E+00
   1    6    8     3     6    8.8768E-01  5.5980E-02   8.3170E-01  0.000E+00  0.000E+00  0.000E+00  1.06158E+03  1.036E+00  6.145E+00  1.844E-02  1.518E+00
   1    5   10     4     1    1.0000E+01  9.0919E-02   9.9091E+00  0.000E+00  0.000E+00  0.000E+00  1.07836E+03  6.368E-01  1.000E+01  2.500E-02  1.212E+00
   1    5    9     4     2    9.9091E+00  1.8158E-01   9.7275E+00  0.000E+00  0.000E+00  0.000E+00  1.07154E+03  6.315E-01  1.000E+01  5.000E-02  1.211E+00
   1    6    8     4     3    9.7275E+00  1.2689E-01   9.6006E+00  0.000E+00  0.000E+00  0.000E+00  1.06381E+03  6.256E-01  1.000E+01  3.500E-02  1.209E+00
   1    6    8     5     1    1.0432E+01  2.2686E-01   1.0205E+01  0.000E+00  0.000E+00  0.000E+00  1.05868E+03  6.790E-01  1.542E+01  6.166E-02  1.226E+00
   1    7    7     5     2    1.0205E+01  2.7894E-01   9.9265E+00  0.000E+00  0.000E+00  0.000E+00  1.05417E+03  6.732E-01  1.519E+01  7.594E-02  1.224E+00
   1    8    7     5     3    9.9265E+00  1.9221E-01   9.7343E+00  0.000E+00  0.000E+00  0.000E+00  1.04992E+03  6.676E-01  1.497E+01  5.241E-02  1.223E+00
   1    8    6     5     4    9.7343E+00  1.3577E-01   9.5985E+00  0.000E+00  0.000E+00  0.000E+00  1.04691E+03  6.637E-01  1.482E+01  3.706E-02  1.221E+00
   1    9    6     6     1    1.6194E+01  2.3621E-01   1.5958E+01  0.000E+00  0.000E+00  0.000E+00  1.04366E+03  9.369E-01  1.200E+01  6.000E-02  1.312E+00
   1   10    7     6     2    1.5958E+01  2.3572E-01   1.5723E+01  0.000E+00  0.000E+00  0.000E+00  1.03911E+03  9.286E-01  1.200E+01  6.000E-02  1.310E+00
   1   11    7     6     3    1.5723E+01  2.3522E-01   1.5487E+01  0.000E+00  0.000E+00  0.000E+00  1.03456E+03  9.203E-01  1.200E+01  6.000E-02  1.307E+00
   1   12    7     6     4    1.5487E+01  2.3472E-01   1.5253E+01  0.000E+00  0.000E+00  0.000E+00  1.03000E+03  9.120E-01  1.200E+01  6.000E-02  1.304E+00
   1   13    7     6     5    1.5253E+01 -9.6231E-03   1.5262E+01  0.000E+00  0.000E+00  0.000E+00  1.02682E+03  9.079E-01  1.200E+01  2.400E-01 -1.337E-02
   1   14    9     7     1    1.5000E+02  1.3671E+00   1.4863E+02  0.000E+00  0.000E+00  0.000E+00  1.03987E+03  2.288E+00  5.529E+01  5.593E-01  8.148E-01
   1   13    8     7     2    1.4863E+02  1.9169E+00   1.4672E+02  0.000E+00  0.000E+00  0.000E+00  1.03478E+03  2.279E+00  5.526E+01  6.148E-01  1.039E+00
   1   13    7     7     3    1.4672E+02  1.5813E+00   1.4513E+02  0.000E+00  0.000E+00  0.000E+00  1.02969E+03  2.270E+00  5.521E+01  5.584E-01  9.439E-01
   1   13    6     8     1    1.6040E+02  9.6387E-01   1.5943E+02  0.000E+00  0.000E+00  0.000E+00  1.02476E+03  2.885E+00  4.184E+01  4.263E-01  7.536E-01
   1   13    5     8     2    1.5943E+02  2.1279E-01   1.5922E+02  0.000E+00  0.000E+00  0.000E+00  1.01851E+03  2.881E+00  4.178E+01  4.257E-01  1.666E-01
   1   13    4     8     3    1.5922E+02 -2.4400E+00   1.6166E+02  0.000E+00  0.000E+00  0.000E+00  1.01226E+03  2.889E+00  4.189E+01  4.269E+00 -1.905E-01
   1   13    3     8     4    1.6166E+02 -3.7251E+00   1.6539E+02  0.000E+00  0.000E+00  0.000E+00  1.00603E+03  2.910E+00  4.219E+01  4.299E+00 -2.888E-01
   1   13    2     8     5    1.6539E+02 -2.7428E+00   1.6813E+02  0.000E+00  0.000E+00  0.000E+00  9.99806E+02  2.931E+00  4.250E+01  4.331E+00 -2.111E-01
   1   13    1     8     6    1.6813E+02 -2.0862E+00   1.7021E+02  0.000E+00  0.000E+00  0.000E+00  9.94822E+02  2.947E+00  4.273E+01  2.613E+00 -2.662E-01
   1    8    6     9     1    0.0000E+00  0.0000E+00   0.0000E+00  0.000E+00  0.000E+00  0.000E+00  1.07875E+03  0.000E+00  4.000E+00  0.000E+00  1.000E+00
   1    8    5     9     2    0.0000E+00  0.0000E+00   0.0000E+00  0.000E+00  0.000E+00  0.000E+00  1.07825E+03  0.000E+00  4.000E+00  0.000E+00  1.000E+00



 UBDSV3 SAVING "           GW ET" ON UNIT  61 AT TIME STEP  6, STRESS PERIOD   5
 UBDSV3 SAVING "    UZF RECHARGE" ON UNIT  61 AT TIME STEP  6, STRESS PERIOD   5
 UBDSV3 SAVING " SURFACE LEAKAGE" ON UNIT  61 AT TIME STEP  6, STRESS PERIOD   5
 UBDSV3 SAVING "       HORT+DUNN" ON UNIT  61 AT TIME STEP  6, STRESS PERIOD   5
 UBDSV3 SAVING "  STORAGE CHANGE" ON UNIT  61 AT TIME STEP  6, STRESS PERIOD   5


UNSATURATED ZONE PACKAGE VOLUMETRIC BUDGET FOR  TIME STEP     6 STRESS PERIOD    5
  ------------------------------------------------------------------------------



     CUMULATIVE VOLUMES      L**3       RATES FOR THIS TIME STEP      L**3/T
     ------------------                 ------------------------

           IN:                                      IN:
           ---                                      ---
        INFILTRATION =    60384033.7482          INFILTRATION =           0.8475

          OUT:                                     OUT:
          ----                                     ----
              UZF ET =     9005486.6906                UZF ET =           4.5677
        UZF RECHARGE =       73224.0000          UZF RECHARGE =       0.0000E+00

            IN - OUT =    51305323.0576              IN - OUT =          -3.7202

          STORAGE:                                 STORAGE:
          --------                                 --------
      STORAGE CHANGE =    51325935.7788        STORAGE CHANGE =          -3.7202

 PERCENT DISCREPANCY IS DIFFERENCE BETWEEN IN-OUT MINUS CHANGE IN STORAGE
 DIVIDED BY THE AVERAGE OF IN AND OUT TIMES 100

 PERCENT DISCREPANCY =          -0.01     PERCENT DISCREPANCY =           0.00






 

            AG WELLS      PERIOD    5   STEP   6
 AG WELL      1   LAYER   1   ROW     6   COL     4   RATE     0.00000    
 AG WELL      2   LAYER   1   ROW     6   COL     5   RATE     0.00000    
 AG WELL      3   LAYER   1   ROW     7   COL     4   RATE     0.00000    
 AG WELL      4   LAYER   1   ROW     7   COL     5   RATE     0.00000    
 AG WELL      5   LAYER   1   ROW     8   COL     4   RATE     0.00000    
 AG WELL      6   LAYER   1   ROW     8   COL     5   RATE     0.00000    
 
 

   DIVERSION SEGMENTS     PERIOD    5   STEP   6
 SEGMENT      9   RATE     0.00000    
 
 

        SW IRRIGATION     PERIOD    5   STEP   6
 SEGMENT      9   ROW     6   COL     4   RATE     0.00000    
 SEGMENT      9   ROW     6   COL     5   RATE     0.00000    
 SEGMENT      9   ROW     7   COL     4   RATE     0.00000    
 SEGMENT      9   ROW     7   COL     5   RATE     0.00000    
 SEGMENT      9   ROW     8   COL     4   RATE     0.00000    
 SEGMENT      9   ROW     8   COL     5   RATE     0.00000    
 
 

        GW IRRIGATION     PERIOD    5   STEP   6
 AG WELL      1   ROW     6   COL     4   RATE     0.00000    
 AG WELL      2   ROW     6   COL     5   RATE     0.00000    
 AG WELL      3   ROW     7   COL     4   RATE     0.00000    
 AG WELL      4   ROW     7   COL     5   RATE     0.00000    
 AG WELL      5   ROW     8   COL     4   RATE     0.00000    
 AG WELL      6   ROW     8   COL     5   RATE     0.00000    
 
1
  VOLUMETRIC BUDGET FOR AGRICULTURAL FIELDS AT  END OF TIME STEP    6, STRESS PERIOD   5
  ------------------------------------------------------------------------------

     CUMULATIVE VOLUMES      L**3       RATES FOR THIS TIME STEP      L**3/T
     ------------------                 ------------------------

           IN:                                      IN:
           ---                                      ---
               AG WELLS  =    52600000.0000                 AG WELLS  =           0.0000
      DIVERSION SEGMENTS =      578240.3750        DIVERSION SEGMENTS =           0.0000
           GW IRRIGATION =           0.0000             GW IRRIGATION =           0.0000
           SW IRRIGATION =           0.0000             SW IRRIGATION =           0.0000
        SYSTEM LOSSES GW =           0.0000          SYSTEM LOSSES GW =           0.0000
        SYSTEM LOSSES SW =           0.0000          SYSTEM LOSSES SW =           0.0000

                TOTAL IN =    53178240.0000                  TOTAL IN =           0.0000

          OUT:                                     OUT:
          ----                                     ----
               AG WELLS  =           0.0000                 AG WELLS  =           0.0000
      DIVERSION SEGMENTS =           0.0000        DIVERSION SEGMENTS =           0.0000
           GW IRRIGATION =    52600000.0000             GW IRRIGATION =           0.0000
           SW IRRIGATION =      578251.9375             SW IRRIGATION =           0.0000
        SYSTEM LOSSES GW =           0.0000          SYSTEM LOSSES GW =           0.0000
        SYSTEM LOSSES SW =           0.0000          SYSTEM LOSSES SW =           0.0000

               TOTAL OUT =    53178252.0000                 TOTAL OUT =           0.0000

                IN - OUT =         -12.0000                  IN - OUT =           0.0000

     PERCENT DISCREPANCY =          -0.00         PERCENT DISCREPANCY =           0.00



1
  VOLUMETRIC BUDGET FOR ENTIRE MODEL AT END OF TIME STEP    6, STRESS PERIOD   5
  ------------------------------------------------------------------------------

     CUMULATIVE VOLUMES      L**3       RATES FOR THIS TIME STEP      L**3/T
     ------------------                 ------------------------

           IN:                                      IN:
           ---                                      ---
             STORAGE     =    61782992.0000               STORAGE     =           9.9466
       CONSTANT HEAD     =           0.0000         CONSTANT HEAD     =           0.0000
     HEAD DEP BOUNDS     =     2447209.7500       HEAD DEP BOUNDS     =           0.2879
      STREAM LEAKAGE     =    99384808.0000        STREAM LEAKAGE     =          11.2893
        UZF RECHARGE     =       73223.9531          UZF RECHARGE     =           0.0000
               GW ET     =           0.0000                 GW ET     =           0.0000
     SURFACE LEAKAGE     =           0.0000       SURFACE LEAKAGE     =           0.0000
           AG WELLS      =           0.0000             AG WELLS      =           0.0000

                TOTAL IN =   163688224.0000                  TOTAL IN =          21.5238

          OUT:                                     OUT:
          ----                                     ----
             STORAGE     =    22456150.0000               STORAGE     =          10.2306
       CONSTANT HEAD     =           0.0000         CONSTANT HEAD     =           0.0000
     HEAD DEP BOUNDS     =     2450128.2500       HEAD DEP BOUNDS     =           0.2896
      STREAM LEAKAGE     =    86185680.0000        STREAM LEAKAGE     =          11.0036
        UZF RECHARGE     =           0.0000          UZF RECHARGE     =           0.0000
               GW ET     =           0.0000                 GW ET     =           0.0000
     SURFACE LEAKAGE     =           0.0000       SURFACE LEAKAGE     =           0.0000
           AG WELLS      =    52600000.0000             AG WELLS      =           0.0000

               TOTAL OUT =   163691968.0000                 TOTAL OUT =          21.5238

                IN - OUT =       -3744.0000                  IN - OUT =       5.7220E-06

     PERCENT DISCREPANCY =          -0.00         PERCENT DISCREPANCY =           0.00






         TIME SUMMARY AT END OF TIME STEP    6 IN STRESS PERIOD    5
                    SECONDS     MINUTES      HOURS       DAYS        YEARS
                    -----------------------------------------------------------
   TIME STEP LENGTH  87667.      1461.1      24.352      1.0147     2.77799E-03
 STRESS PERIOD TIME 5.26000E+05  8766.7      146.11      6.0880     1.66679E-02
         TOTAL TIME 8.50239E+06 1.41707E+05  2361.8      98.407     0.26942    
1
 
 SOLVING FOR HEAD 
                                                   Max.-Head-Change                         Max.-Flux-Residual
  Residual-Control   Outer-Iter.   Inner-Iter.     Column Row Layer    Maximum-Head-Change  Column Row Layer    Maximum-Flux-Residual          L2-NORM 
          0                 1           2             5    8     1       0.4049473001E-01       5    8    1         0.2222675626E+01      0.4952528303E+01
          0                 2           2             5    8     1      -0.3939007407E-02       5    8    1        -0.2222657861E+00      0.4951772472E+00
          0                 3           2             5    8     1       0.2682320550E-03       5    8    1         0.1555862872E-01      0.3465639115E-01
          0                 4           1             5    8     1      -0.1067320364E-04       5    8    1        -0.6363487253E-03      0.1417060932E-02

    ------------------------------------------------
       NWT REQUIRED            4 OUTER ITERATIONS 
       AND A TOTAL OF          7 INNER ITERATIONS.
    ------------------------------------------------

 OUTPUT CONTROL FOR STRESS PERIOD    5   TIME STEP    7
    PRINT BUDGET
    SAVE BUDGET
 UBDSV1 SAVING "         STORAGE" ON UNIT 102 AT TIME STEP  7, STRESS PERIOD   5
 UBDSV2 SAVING "   CONSTANT HEAD" ON UNIT 102 AT TIME STEP  7, STRESS PERIOD   5
 UBDSV1 SAVING "FLOW RIGHT FACE " ON UNIT 102 AT TIME STEP  7, STRESS PERIOD   5
 UBDSV1 SAVING "FLOW FRONT FACE " ON UNIT 102 AT TIME STEP  7, STRESS PERIOD   5

  HEAD DEP BOUNDS   PERIOD    5   STEP     7
 BOUNDARY      1   LAYER   1   ROW    13   COL     1   RATE   -0.289494    
 BOUNDARY      2   LAYER   1   ROW    14   COL     9   RATE    0.287887    



 STREAM LISTING     PERIOD      5   STEP        7

 LAYER ROW COL. STREAM  RCH.  FLOW INTO     FLOW TO   FLOW OUT OF   OVRLND.     DIRECT     STREAM       STREAM     STREAM     STREAM   STREAMBED  STREAMBED
                SEG.NO.  NO.  STRM. RCH.    AQUIFER    STRM. RCH.    RUNOFF     PRECIP       ET          HEAD       DEPTH      WIDTH   CONDCTNC.   GRADIENT

   1    1    1     1     1    1.0500E+01  1.5271E-01   1.0347E+01  0.000E+00  0.000E+00  0.000E+00  1.09396E+03  9.109E-01  8.677E+00  3.905E-02  1.304E+00
   1    2    2     1     2    1.0347E+01  2.3505E-01   1.0112E+01  0.000E+00  0.000E+00  0.000E+00  1.08896E+03  9.059E-01  8.597E+00  6.018E-02  1.302E+00
   1    3    3     1     3    1.0112E+01  1.9904E-01   9.9132E+00  0.000E+00  0.000E+00  0.000E+00  1.08332E+03  9.003E-01  8.505E+00  5.103E-02  1.300E+00
   1    3    4     1     4    9.9132E+00  1.8195E-01   9.7313E+00  0.000E+00  0.000E+00  0.000E+00  1.07830E+03  8.947E-01  8.417E+00  4.672E-02  1.298E+00
   1    4    5     2     1    7.7313E+00  2.8007E-01   7.4512E+00  0.000E+00  0.000E+00  0.000E+00  1.07252E+03  5.907E-01  1.200E+01  7.800E-02  1.197E+00
   1    5    6     2     2    7.4512E+00  2.1474E-01   7.2365E+00  0.000E+00  0.000E+00  0.000E+00  1.06709E+03  5.790E-01  1.200E+01  6.000E-02  1.193E+00
   1    6    6     2     3    7.2365E+00  2.1413E-01   7.0224E+00  0.000E+00  0.000E+00  0.000E+00  1.06236E+03  5.688E-01  1.200E+01  6.000E-02  1.190E+00
   1    7    6     2     4    7.0224E+00  2.1351E-01   6.8088E+00  0.000E+00  0.000E+00  0.000E+00  1.05763E+03  5.585E-01  1.200E+01  6.000E-02  1.186E+00
   1    8    6     2     5    6.8088E+00  2.1289E-01   6.5960E+00  0.000E+00  0.000E+00  0.000E+00  1.05291E+03  5.481E-01  1.200E+01  6.000E-02  1.183E+00
   1    3    5     3     1    2.0000E+00  2.8252E-01   1.7175E+00  0.000E+00  0.000E+00  0.000E+00  1.07555E+03  1.909E+00  9.636E+00  7.227E-02  1.955E+00
   1    3    6     3     2    1.7175E+00  2.4905E-01   1.4684E+00  0.000E+00  0.000E+00  0.000E+00  1.07264E+03  1.727E+00  8.909E+00  6.682E-02  1.864E+00
   1    3    7     3     3    1.4684E+00  1.9718E-01   1.2712E+00  0.000E+00  0.000E+00  0.000E+00  1.06987E+03  1.555E+00  8.218E+00  5.547E-02  1.777E+00
   1    4    8     3     4    1.2712E+00  2.2567E-01   1.0456E+00  0.000E+00  0.000E+00  0.000E+00  1.06682E+03  1.364E+00  7.455E+00  6.709E-02  1.682E+00
   1    5    8     3     5    1.0456E+00  1.5790E-01   8.8768E-01  0.000E+00  0.000E+00  0.000E+00  1.06362E+03  1.164E+00  6.655E+00  4.991E-02  1.582E+00
   1    6    8     3     6    8.8768E-01  5.5980E-02   8.3170E-01  0.000E+00  0.000E+00  0.000E+00  1.06158E+03  1.036E+00  6.145E+00  1.844E-02  1.518E+00
   1    5   10     4     1    1.0000E+01  9.0919E-02   9.9091E+00  0.000E+00  0.000E+00  0.000E+00  1.07836E+03  6.368E-01  1.000E+01  2.500E-02  1.212E+00
   1    5    9     4     2    9.9091E+00  1.8158E-01   9.7275E+00  0.000E+00  0.000E+00  0.000E+00  1.07154E+03  6.315E-01  1.000E+01  5.000E-02  1.211E+00
   1    6    8     4     3    9.7275E+00  1.2689E-01   9.6006E+00  0.000E+00  0.000E+00  0.000E+00  1.06381E+03  6.256E-01  1.000E+01  3.500E-02  1.209E+00
   1    6    8     5     1    1.0432E+01  2.2686E-01   1.0205E+01  0.000E+00  0.000E+00  0.000E+00  1.05868E+03  6.790E-01  1.542E+01  6.166E-02  1.226E+00
   1    7    7     5     2    1.0205E+01  2.7894E-01   9.9265E+00  0.000E+00  0.000E+00  0.000E+00  1.05417E+03  6.732E-01  1.519E+01  7.594E-02  1.224E+00
   1    8    7     5     3    9.9265E+00  1.9221E-01   9.7343E+00  0.000E+00  0.000E+00  0.000E+00  1.04992E+03  6.676E-01  1.497E+01  5.241E-02  1.223E+00
   1    8    6     5     4    9.7343E+00  1.3577E-01   9.5985E+00  0.000E+00  0.000E+00  0.000E+00  1.04691E+03  6.637E-01  1.482E+01  3.706E-02  1.221E+00
   1    9    6     6     1    1.6194E+01  2.3621E-01   1.5958E+01  0.000E+00  0.000E+00  0.000E+00  1.04366E+03  9.369E-01  1.200E+01  6.000E-02  1.312E+00
   1   10    7     6     2    1.5958E+01  2.3572E-01   1.5723E+01  0.000E+00  0.000E+00  0.000E+00  1.03911E+03  9.286E-01  1.200E+01  6.000E-02  1.310E+00
   1   11    7     6     3    1.5723E+01  2.3522E-01   1.5487E+01  0.000E+00  0.000E+00  0.000E+00  1.03456E+03  9.203E-01  1.200E+01  6.000E-02  1.307E+00
   1   12    7     6     4    1.5487E+01  2.3472E-01   1.5253E+01  0.000E+00  0.000E+00  0.000E+00  1.03000E+03  9.120E-01  1.200E+01  6.000E-02  1.304E+00
   1   13    7     6     5    1.5253E+01 -9.6325E-03   1.5262E+01  0.000E+00  0.000E+00  0.000E+00  1.02682E+03  9.079E-01  1.200E+01  2.400E-01 -1.338E-02
   1   14    9     7     1    1.5000E+02  1.3671E+00   1.4863E+02  0.000E+00  0.000E+00  0.000E+00  1.03987E+03  2.288E+00  5.529E+01  5.593E-01  8.148E-01
   1   13    8     7     2    1.4863E+02  1.9168E+00   1.4672E+02  0.000E+00  0.000E+00  0.000E+00  1.03478E+03  2.279E+00  5.526E+01  6.148E-01  1.039E+00
   1   13    7     7     3    1.4672E+02  1.5813E+00   1.4513E+02  0.000E+00  0.000E+00  0.000E+00  1.02969E+03  2.270E+00  5.521E+01  5.584E-01  9.439E-01
   1   13    6     8     1    1.6040E+02  9.6411E-01   1.5943E+02  0.000E+00  0.000E+00  0.000E+00  1.02476E+03  2.885E+00  4.184E+01  4.263E-01  7.538E-01
   1   13    5     8     2    1.5943E+02  2.1301E-01   1.5922E+02  0.000E+00  0.000E+00  0.000E+00  1.01851E+03  2.881E+00  4.178E+01  4.257E-01  1.668E-01
   1   13    4     8     3    1.5922E+02 -2.4270E+00   1.6165E+02  0.000E+00  0.000E+00  0.000E+00  1.01226E+03  2.889E+00  4.189E+01  4.268E+00 -1.895E-01
   1   13    3     8     4    1.6165E+02 -3.7127E+00   1.6536E+02  0.000E+00  0.000E+00  0.000E+00  1.00603E+03  2.909E+00  4.219E+01  4.299E+00 -2.879E-01
   1   13    2     8     5    1.6536E+02 -2.7292E+00   1.6809E+02  0.000E+00  0.000E+00  0.000E+00  9.99806E+02  2.931E+00  4.250E+01  4.330E+00 -2.101E-01
   1   13    1     8     6    1.6809E+02 -2.0813E+00   1.7017E+02  0.000E+00  0.000E+00  0.000E+00  9.94822E+02  2.947E+00  4.272E+01  2.612E+00 -2.656E-01
   1    8    6     9     1    4.4264E-07  0.0000E+00   4.4264E-07  0.000E+00  0.000E+00  0.000E+00  1.07875E+03  7.379E-05  4.000E+00  0.000E+00  1.000E+00
   1    8    5     9     2    4.4264E-07  0.0000E+00   4.4264E-07  0.000E+00  0.000E+00  0.000E+00  1.07825E+03  7.379E-05  4.000E+00  0.000E+00  1.000E+00



 UBDSV3 SAVING "           GW ET" ON UNIT  61 AT TIME STEP  7, STRESS PERIOD   5
 UBDSV3 SAVING "    UZF RECHARGE" ON UNIT  61 AT TIME STEP  7, STRESS PERIOD   5
 UBDSV3 SAVING " SURFACE LEAKAGE" ON UNIT  61 AT TIME STEP  7, STRESS PERIOD   5
 UBDSV3 SAVING "       HORT+DUNN" ON UNIT  61 AT TIME STEP  7, STRESS PERIOD   5
 UBDSV3 SAVING "  STORAGE CHANGE" ON UNIT  61 AT TIME STEP  7, STRESS PERIOD   5


UNSATURATED ZONE PACKAGE VOLUMETRIC BUDGET FOR  TIME STEP     7 STRESS PERIOD    5
  ------------------------------------------------------------------------------



     CUMULATIVE VOLUMES      L**3       RATES FOR THIS TIME STEP      L**3/T
     ------------------                 ------------------------

           IN:                                      IN:
           ---                                      ---
        INFILTRATION =    60458331.2827          INFILTRATION =           0.8475

          OUT:                                     OUT:
          ----                                     ----
              UZF ET =     9405904.1709                UZF ET =           4.5675
        UZF RECHARGE =       73224.0000          UZF RECHARGE =       0.0000E+00

            IN - OUT =    50979203.1119              IN - OUT =          -3.7200

          STORAGE:                                 STORAGE:
          --------                                 --------
      STORAGE CHANGE =    50999815.8220        STORAGE CHANGE =          -3.7200

 PERCENT DISCREPANCY IS DIFFERENCE BETWEEN IN-OUT MINUS CHANGE IN STORAGE
 DIVIDED BY THE AVERAGE OF IN AND OUT TIMES 100

 PERCENT DISCREPANCY =          -0.01     PERCENT DISCREPANCY =           0.00






 

            AG WELLS      PERIOD    5   STEP   7
 AG WELL      1   LAYER   1   ROW     6   COL     4   RATE   -1.844331E-08
 AG WELL      2   LAYER   1   ROW     6   COL     5   RATE   -1.844331E-08
 AG WELL      3   LAYER   1   ROW     7   COL     4   RATE   -1.844331E-08
 AG WELL      4   LAYER   1   ROW     7   COL     5   RATE   -1.844331E-08
 AG WELL      5   LAYER   1   ROW     8   COL     4   RATE   -1.844331E-08
 AG WELL      6   LAYER   1   ROW     8   COL     5   RATE   -1.844331E-08
 
 

   DIVERSION SEGMENTS     PERIOD    5   STEP   7
 SEGMENT      9   RATE    4.426394E-07
 
 

        SW IRRIGATION     PERIOD    5   STEP   7
 SEGMENT      9   ROW     6   COL     4   RATE    5.533103E-08
 SEGMENT      9   ROW     6   COL     5   RATE    5.533103E-08
 SEGMENT      9   ROW     7   COL     4   RATE    5.533103E-08
 SEGMENT      9   ROW     7   COL     5   RATE    5.533103E-08
 SEGMENT      9   ROW     8   COL     4   RATE    5.533103E-08
 SEGMENT      9   ROW     8   COL     5   RATE    5.533103E-08
 
 

        GW IRRIGATION     PERIOD    5   STEP   7
 AG WELL      1   ROW     6   COL     4   RATE    1.844331E-08
 AG WELL      2   ROW     6   COL     5   RATE    1.844331E-08
 AG WELL      3   ROW     7   COL     4   RATE    1.844331E-08
 AG WELL      4   ROW     7   COL     5   RATE    1.844331E-08
 AG WELL      5   ROW     8   COL     4   RATE    1.844331E-08
 AG WELL      6   ROW     8   COL     5   RATE    1.844331E-08
 
1
  VOLUMETRIC BUDGET FOR AGRICULTURAL FIELDS AT  END OF TIME STEP    7, STRESS PERIOD   5
  ------------------------------------------------------------------------------

     CUMULATIVE VOLUMES      L**3       RATES FOR THIS TIME STEP      L**3/T
     ------------------                 ------------------------

           IN:                                      IN:
           ---                                      ---
               AG WELLS  =    52600000.0000                 AG WELLS  =       1.1066E-07
      DIVERSION SEGMENTS =      578240.4375        DIVERSION SEGMENTS =       4.4264E-07
           GW IRRIGATION =           0.0000             GW IRRIGATION =           0.0000
           SW IRRIGATION =           0.0000             SW IRRIGATION =           0.0000
        SYSTEM LOSSES GW =           0.0000          SYSTEM LOSSES GW =           0.0000
        SYSTEM LOSSES SW =           0.0000          SYSTEM LOSSES SW =           0.0000

                TOTAL IN =    53178240.0000                  TOTAL IN =       5.5330E-07

          OUT:                                     OUT:
          ----                                     ----
               AG WELLS  =           0.0000                 AG WELLS  =           0.0000
      DIVERSION SEGMENTS =           0.0000        DIVERSION SEGMENTS =           0.0000
           GW IRRIGATION =    52600000.0000             GW IRRIGATION =       1.1066E-07
           SW IRRIGATION =      578252.0000             SW IRRIGATION =       4.4265E-07
        SYSTEM LOSSES GW =           0.0000          SYSTEM LOSSES GW =           0.0000
        SYSTEM LOSSES SW =           0.0000          SYSTEM LOSSES SW =           0.0000

               TOTAL OUT =    53178252.0000                 TOTAL OUT =       5.5331E-07

                IN - OUT =         -12.0000                  IN - OUT =      -8.8107E-12

     PERCENT DISCREPANCY =          -0.00         PERCENT DISCREPANCY =          -0.00



1
  VOLUMETRIC BUDGET FOR ENTIRE MODEL AT END OF TIME STEP    7, STRESS PERIOD   5
  ------------------------------------------------------------------------------

     CUMULATIVE VOLUMES      L**3       RATES FOR THIS TIME STEP      L**3/T
     ------------------                 ------------------------

           IN:                                      IN:
           ---                                      ---
             STORAGE     =    62621280.0000               STORAGE     =           9.5622
       CONSTANT HEAD     =           0.0000         CONSTANT HEAD     =           0.0000
     HEAD DEP BOUNDS     =     2472447.7500       HEAD DEP BOUNDS     =           0.2879
      STREAM LEAKAGE     =   100374536.0000        STREAM LEAKAGE     =          11.2897
        UZF RECHARGE     =       73223.9531          UZF RECHARGE     =           0.0000
               GW ET     =           0.0000                 GW ET     =           0.0000
     SURFACE LEAKAGE     =           0.0000       SURFACE LEAKAGE     =           0.0000
           AG WELLS      =           0.0000             AG WELLS      =           0.0000

                TOTAL IN =   165541472.0000                  TOTAL IN =          21.1398

          OUT:                                     OUT:
          ----                                     ----
             STORAGE     =    23323210.0000               STORAGE     =           9.8904
       CONSTANT HEAD     =           0.0000         CONSTANT HEAD     =           0.0000
     HEAD DEP BOUNDS     =     2475507.2500       HEAD DEP BOUNDS     =           0.2895
      STREAM LEAKAGE     =    87146496.0000        STREAM LEAKAGE     =          10.9599
        UZF RECHARGE     =           0.0000          UZF RECHARGE     =           0.0000
               GW ET     =           0.0000                 GW ET     =           0.0000
     SURFACE LEAKAGE     =           0.0000       SURFACE LEAKAGE     =           0.0000
           AG WELLS      =    52600000.0000             AG WELLS      =       1.1066E-07

               TOTAL OUT =   165545216.0000                 TOTAL OUT =          21.1398

                IN - OUT =       -3744.0000                  IN - OUT =       5.7220E-06

     PERCENT DISCREPANCY =          -0.00         PERCENT DISCREPANCY =           0.00






         TIME SUMMARY AT END OF TIME STEP    7 IN STRESS PERIOD    5
                    SECONDS     MINUTES      HOURS       DAYS        YEARS
                    -----------------------------------------------------------
   TIME STEP LENGTH  87667.      1461.1      24.352      1.0147     2.77799E-03
 STRESS PERIOD TIME 6.13667E+05  10228.      170.46      7.1026     1.94459E-02
         TOTAL TIME 8.59006E+06 1.43168E+05  2386.1      99.422     0.27220    
1
 
 SOLVING FOR HEAD 
                                                   Max.-Head-Change                         Max.-Flux-Residual
  Residual-Control   Outer-Iter.   Inner-Iter.     Column Row Layer    Maximum-Head-Change  Column Row Layer    Maximum-Flux-Residual          L2-NORM 
          0                 1           2             5    8     1       0.3837433959E-01       5    8    1         0.2104369142E+01      0.4734703169E+01
          0                 2           2             5    8     1      -0.3732754007E-02       5    8    1        -0.2104353308E+00      0.4734023903E+00
          0                 3           2             5    8     1       0.2541869360E-03       5    8    1         0.1473049467E-01      0.3313261936E-01
          0                 4           1             5    8     1      -0.1011433501E-04       5    8    1        -0.6024780043E-03      0.1354788449E-02

    ------------------------------------------------
       NWT REQUIRED            4 OUTER ITERATIONS 
       AND A TOTAL OF          7 INNER ITERATIONS.
    ------------------------------------------------

 OUTPUT CONTROL FOR STRESS PERIOD    5   TIME STEP    8
    PRINT BUDGET
    SAVE BUDGET
 UBDSV1 SAVING "         STORAGE" ON UNIT 102 AT TIME STEP  8, STRESS PERIOD   5
 UBDSV2 SAVING "   CONSTANT HEAD" ON UNIT 102 AT TIME STEP  8, STRESS PERIOD   5
 UBDSV1 SAVING "FLOW RIGHT FACE " ON UNIT 102 AT TIME STEP  8, STRESS PERIOD   5
 UBDSV1 SAVING "FLOW FRONT FACE " ON UNIT 102 AT TIME STEP  8, STRESS PERIOD   5

  HEAD DEP BOUNDS   PERIOD    5   STEP     8
 BOUNDARY      1   LAYER   1   ROW    13   COL     1   RATE   -0.289418    
 BOUNDARY      2   LAYER   1   ROW    14   COL     9   RATE    0.287888    



 STREAM LISTING     PERIOD      5   STEP        8

 LAYER ROW COL. STREAM  RCH.  FLOW INTO     FLOW TO   FLOW OUT OF   OVRLND.     DIRECT     STREAM       STREAM     STREAM     STREAM   STREAMBED  STREAMBED
                SEG.NO.  NO.  STRM. RCH.    AQUIFER    STRM. RCH.    RUNOFF     PRECIP       ET          HEAD       DEPTH      WIDTH   CONDCTNC.   GRADIENT

   1    1    1     1     1    1.0500E+01  1.5271E-01   1.0347E+01  0.000E+00  0.000E+00  0.000E+00  1.09396E+03  9.109E-01  8.677E+00  3.905E-02  1.304E+00
   1    2    2     1     2    1.0347E+01  2.3505E-01   1.0112E+01  0.000E+00  0.000E+00  0.000E+00  1.08896E+03  9.059E-01  8.597E+00  6.018E-02  1.302E+00
   1    3    3     1     3    1.0112E+01  1.9904E-01   9.9132E+00  0.000E+00  0.000E+00  0.000E+00  1.08332E+03  9.003E-01  8.505E+00  5.103E-02  1.300E+00
   1    3    4     1     4    9.9132E+00  1.8195E-01   9.7313E+00  0.000E+00  0.000E+00  0.000E+00  1.07830E+03  8.947E-01  8.417E+00  4.672E-02  1.298E+00
   1    4    5     2     1    7.7313E+00  2.8007E-01   7.4512E+00  0.000E+00  0.000E+00  0.000E+00  1.07252E+03  5.907E-01  1.200E+01  7.800E-02  1.197E+00
   1    5    6     2     2    7.4512E+00  2.1474E-01   7.2365E+00  0.000E+00  0.000E+00  0.000E+00  1.06709E+03  5.790E-01  1.200E+01  6.000E-02  1.193E+00
   1    6    6     2     3    7.2365E+00  2.1413E-01   7.0224E+00  0.000E+00  0.000E+00  0.000E+00  1.06236E+03  5.688E-01  1.200E+01  6.000E-02  1.190E+00
   1    7    6     2     4    7.0224E+00  2.1351E-01   6.8088E+00  0.000E+00  0.000E+00  0.000E+00  1.05763E+03  5.585E-01  1.200E+01  6.000E-02  1.186E+00
   1    8    6     2     5    6.8088E+00  2.1289E-01   6.5960E+00  0.000E+00  0.000E+00  0.000E+00  1.05291E+03  5.481E-01  1.200E+01  6.000E-02  1.183E+00
   1    3    5     3     1    2.0000E+00  2.8252E-01   1.7175E+00  0.000E+00  0.000E+00  0.000E+00  1.07555E+03  1.909E+00  9.636E+00  7.227E-02  1.955E+00
   1    3    6     3     2    1.7175E+00  2.4905E-01   1.4684E+00  0.000E+00  0.000E+00  0.000E+00  1.07264E+03  1.727E+00  8.909E+00  6.682E-02  1.864E+00
   1    3    7     3     3    1.4684E+00  1.9718E-01   1.2712E+00  0.000E+00  0.000E+00  0.000E+00  1.06987E+03  1.555E+00  8.218E+00  5.547E-02  1.777E+00
   1    4    8     3     4    1.2712E+00  2.2567E-01   1.0456E+00  0.000E+00  0.000E+00  0.000E+00  1.06682E+03  1.364E+00  7.455E+00  6.709E-02  1.682E+00
   1    5    8     3     5    1.0456E+00  1.5790E-01   8.8768E-01  0.000E+00  0.000E+00  0.000E+00  1.06362E+03  1.164E+00  6.655E+00  4.991E-02  1.582E+00
   1    6    8     3     6    8.8768E-01  5.5980E-02   8.3170E-01  0.000E+00  0.000E+00  0.000E+00  1.06158E+03  1.036E+00  6.145E+00  1.844E-02  1.518E+00
   1    5   10     4     1    1.0000E+01  9.0919E-02   9.9091E+00  0.000E+00  0.000E+00  0.000E+00  1.07836E+03  6.368E-01  1.000E+01  2.500E-02  1.212E+00
   1    5    9     4     2    9.9091E+00  1.8158E-01   9.7275E+00  0.000E+00  0.000E+00  0.000E+00  1.07154E+03  6.315E-01  1.000E+01  5.000E-02  1.211E+00
   1    6    8     4     3    9.7275E+00  1.2689E-01   9.6006E+00  0.000E+00  0.000E+00  0.000E+00  1.06381E+03  6.256E-01  1.000E+01  3.500E-02  1.209E+00
   1    6    8     5     1    1.0432E+01  2.2686E-01   1.0205E+01  0.000E+00  0.000E+00  0.000E+00  1.05868E+03  6.790E-01  1.542E+01  6.166E-02  1.226E+00
   1    7    7     5     2    1.0205E+01  2.7894E-01   9.9265E+00  0.000E+00  0.000E+00  0.000E+00  1.05417E+03  6.732E-01  1.519E+01  7.594E-02  1.224E+00
   1    8    7     5     3    9.9265E+00  1.9221E-01   9.7343E+00  0.000E+00  0.000E+00  0.000E+00  1.04992E+03  6.676E-01  1.497E+01  5.241E-02  1.223E+00
   1    8    6     5     4    9.7343E+00  1.3577E-01   9.5985E+00  0.000E+00  0.000E+00  0.000E+00  1.04691E+03  6.637E-01  1.482E+01  3.706E-02  1.221E+00
   1    9    6     6     1    1.6194E+01  2.3621E-01   1.5958E+01  0.000E+00  0.000E+00  0.000E+00  1.04366E+03  9.369E-01  1.200E+01  6.000E-02  1.312E+00
   1   10    7     6     2    1.5958E+01  2.3572E-01   1.5723E+01  0.000E+00  0.000E+00  0.000E+00  1.03911E+03  9.286E-01  1.200E+01  6.000E-02  1.310E+00
   1   11    7     6     3    1.5723E+01  2.3522E-01   1.5487E+01  0.000E+00  0.000E+00  0.000E+00  1.03456E+03  9.203E-01  1.200E+01  6.000E-02  1.307E+00
   1   12    7     6     4    1.5487E+01  2.3472E-01   1.5253E+01  0.000E+00  0.000E+00  0.000E+00  1.03000E+03  9.120E-01  1.200E+01  6.000E-02  1.304E+00
   1   13    7     6     5    1.5253E+01 -9.6404E-03   1.5262E+01  0.000E+00  0.000E+00  0.000E+00  1.02682E+03  9.079E-01  1.200E+01  2.400E-01 -1.339E-02
   1   14    9     7     1    1.5000E+02  1.3671E+00   1.4863E+02  0.000E+00  0.000E+00  0.000E+00  1.03987E+03  2.288E+00  5.529E+01  5.593E-01  8.148E-01
   1   13    8     7     2    1.4863E+02  1.9167E+00   1.4672E+02  0.000E+00  0.000E+00  0.000E+00  1.03478E+03  2.279E+00  5.526E+01  6.148E-01  1.039E+00
   1   13    7     7     3    1.4672E+02  1.5812E+00   1.4513E+02  0.000E+00  0.000E+00  0.000E+00  1.02969E+03  2.270E+00  5.521E+01  5.584E-01  9.439E-01
   1   13    6     8     1    1.6040E+02  9.6434E-01   1.5943E+02  0.000E+00  0.000E+00  0.000E+00  1.02476E+03  2.885E+00  4.184E+01  4.263E-01  7.540E-01
   1   13    5     8     2    1.5943E+02  2.1323E-01   1.5922E+02  0.000E+00  0.000E+00  0.000E+00  1.01851E+03  2.881E+00  4.178E+01  4.257E-01  1.669E-01
   1   13    4     8     3    1.5922E+02 -2.4152E+00   1.6163E+02  0.000E+00  0.000E+00  0.000E+00  1.01226E+03  2.889E+00  4.189E+01  4.268E+00 -1.886E-01
   1   13    3     8     4    1.6163E+02 -3.7014E+00   1.6534E+02  0.000E+00  0.000E+00  0.000E+00  1.00603E+03  2.909E+00  4.218E+01  4.299E+00 -2.870E-01
   1   13    2     8     5    1.6534E+02 -2.7166E+00   1.6805E+02  0.000E+00  0.000E+00  0.000E+00  9.99806E+02  2.931E+00  4.249E+01  4.330E+00 -2.091E-01
   1   13    1     8     6    1.6805E+02 -2.0765E+00   1.7013E+02  0.000E+00  0.000E+00  0.000E+00  9.94821E+02  2.946E+00  4.272E+01  2.612E+00 -2.650E-01
   1    8    6     9     1    4.4264E-07  0.0000E+00   4.4264E-07  0.000E+00  0.000E+00  0.000E+00  1.07875E+03  7.379E-05  4.000E+00  0.000E+00  1.000E+00
   1    8    5     9     2    4.4264E-07  0.0000E+00   4.4264E-07  0.000E+00  0.000E+00  0.000E+00  1.07825E+03  7.379E-05  4.000E+00  0.000E+00  1.000E+00



 UBDSV3 SAVING "           GW ET" ON UNIT  61 AT TIME STEP  8, STRESS PERIOD   5
 UBDSV3 SAVING "    UZF RECHARGE" ON UNIT  61 AT TIME STEP  8, STRESS PERIOD   5
 UBDSV3 SAVING " SURFACE LEAKAGE" ON UNIT  61 AT TIME STEP  8, STRESS PERIOD   5
 UBDSV3 SAVING "       HORT+DUNN" ON UNIT  61 AT TIME STEP  8, STRESS PERIOD   5
 UBDSV3 SAVING "  STORAGE CHANGE" ON UNIT  61 AT TIME STEP  8, STRESS PERIOD   5


UNSATURATED ZONE PACKAGE VOLUMETRIC BUDGET FOR  TIME STEP     8 STRESS PERIOD    5
  ------------------------------------------------------------------------------



     CUMULATIVE VOLUMES      L**3       RATES FOR THIS TIME STEP      L**3/T
     ------------------                 ------------------------

           IN:                                      IN:
           ---                                      ---
        INFILTRATION =    60532628.8173          INFILTRATION =           0.8475

          OUT:                                     OUT:
          ----                                     ----
              UZF ET =     9806321.6511                UZF ET =           4.5675
        UZF RECHARGE =       73224.0000          UZF RECHARGE =       0.0000E+00

            IN - OUT =    50653083.1662              IN - OUT =          -3.7200

          STORAGE:                                 STORAGE:
          --------                                 --------
      STORAGE CHANGE =    50673695.8666        STORAGE CHANGE =          -3.7200

 PERCENT DISCREPANCY IS DIFFERENCE BETWEEN IN-OUT MINUS CHANGE IN STORAGE
 DIVIDED BY THE AVERAGE OF IN AND OUT TIMES 100

 PERCENT DISCREPANCY =          -0.01     PERCENT DISCREPANCY =           0.00






 

            AG WELLS      PERIOD    5   STEP   8
 AG WELL      1   LAYER   1   ROW     6   COL     4   RATE   -1.844331E-08
 AG WELL      2   LAYER   1   ROW     6   COL     5   RATE   -1.844331E-08
 AG WELL      3   LAYER   1   ROW     7   COL     4   RATE   -1.844331E-08
 AG WELL      4   LAYER   1   ROW     7   COL     5   RATE   -1.844331E-08
 AG WELL      5   LAYER   1   ROW     8   COL     4   RATE   -1.844331E-08
 AG WELL      6   LAYER   1   ROW     8   COL     5   RATE   -1.844331E-08
 
 

   DIVERSION SEGMENTS     PERIOD    5   STEP   8
 SEGMENT      9   RATE    4.426394E-07
 
 

        SW IRRIGATION     PERIOD    5   STEP   8
 SEGMENT      9   ROW     6   COL     4   RATE    5.533103E-08
 SEGMENT      9   ROW     6   COL     5   RATE    5.533103E-08
 SEGMENT      9   ROW     7   COL     4   RATE    5.533103E-08
 SEGMENT      9   ROW     7   COL     5   RATE    5.533103E-08
 SEGMENT      9   ROW     8   COL     4   RATE    5.533103E-08
 SEGMENT      9   ROW     8   COL     5   RATE    5.533103E-08
 
 

        GW IRRIGATION     PERIOD    5   STEP   8
 AG WELL      1   ROW     6   COL     4   RATE    1.844331E-08
 AG WELL      2   ROW     6   COL     5   RATE    1.844331E-08
 AG WELL      3   ROW     7   COL     4   RATE    1.844331E-08
 AG WELL      4   ROW     7   COL     5   RATE    1.844331E-08
 AG WELL      5   ROW     8   COL     4   RATE    1.844331E-08
 AG WELL      6   ROW     8   COL     5   RATE    1.844331E-08
 
1
  VOLUMETRIC BUDGET FOR AGRICULTURAL FIELDS AT  END OF TIME STEP    8, STRESS PERIOD   5
  ------------------------------------------------------------------------------

     CUMULATIVE VOLUMES      L**3       RATES FOR THIS TIME STEP      L**3/T
     ------------------                 ------------------------

           IN:                                      IN:
           ---                                      ---
               AG WELLS  =    52600000.0000                 AG WELLS  =       1.1066E-07
      DIVERSION SEGMENTS =      578240.5000        DIVERSION SEGMENTS =       4.4264E-07
           GW IRRIGATION =           0.0000             GW IRRIGATION =           0.0000
           SW IRRIGATION =           0.0000             SW IRRIGATION =           0.0000
        SYSTEM LOSSES GW =           0.0000          SYSTEM LOSSES GW =           0.0000
        SYSTEM LOSSES SW =           0.0000          SYSTEM LOSSES SW =           0.0000

                TOTAL IN =    53178240.0000                  TOTAL IN =       5.5330E-07

          OUT:                                     OUT:
          ----                                     ----
               AG WELLS  =           0.0000                 AG WELLS  =           0.0000
      DIVERSION SEGMENTS =           0.0000        DIVERSION SEGMENTS =           0.0000
           GW IRRIGATION =    52600000.0000             GW IRRIGATION =       1.1066E-07
           SW IRRIGATION =      578252.0625             SW IRRIGATION =       4.4265E-07
        SYSTEM LOSSES GW =           0.0000          SYSTEM LOSSES GW =           0.0000
        SYSTEM LOSSES SW =           0.0000          SYSTEM LOSSES SW =           0.0000

               TOTAL OUT =    53178252.0000                 TOTAL OUT =       5.5331E-07

                IN - OUT =         -12.0000                  IN - OUT =      -8.8107E-12

     PERCENT DISCREPANCY =          -0.00         PERCENT DISCREPANCY =          -0.00



1
  VOLUMETRIC BUDGET FOR ENTIRE MODEL AT END OF TIME STEP    8, STRESS PERIOD   5
  ------------------------------------------------------------------------------

     CUMULATIVE VOLUMES      L**3       RATES FOR THIS TIME STEP      L**3/T
     ------------------                 ------------------------

           IN:                                      IN:
           ---                                      ---
             STORAGE     =    63427656.0000               STORAGE     =           9.1982
       CONSTANT HEAD     =           0.0000         CONSTANT HEAD     =           0.0000
     HEAD DEP BOUNDS     =     2497686.0000       HEAD DEP BOUNDS     =           0.2879
      STREAM LEAKAGE     =   101364296.0000        STREAM LEAKAGE     =          11.2901
        UZF RECHARGE     =       73223.9531          UZF RECHARGE     =           0.0000
               GW ET     =           0.0000                 GW ET     =           0.0000
     SURFACE LEAKAGE     =           0.0000       SURFACE LEAKAGE     =           0.0000
           AG WELLS      =           0.0000             AG WELLS      =           0.0000

                TOTAL IN =   167362848.0000                  TOTAL IN =          20.7762

          OUT:                                     OUT:
          ----                                     ----
             STORAGE     =    24161948.0000               STORAGE     =           9.5674
       CONSTANT HEAD     =           0.0000         CONSTANT HEAD     =           0.0000
     HEAD DEP BOUNDS     =     2500879.5000       HEAD DEP BOUNDS     =           0.2894
      STREAM LEAKAGE     =    88103760.0000        STREAM LEAKAGE     =          10.9194
        UZF RECHARGE     =           0.0000          UZF RECHARGE     =           0.0000
               GW ET     =           0.0000                 GW ET     =           0.0000
     SURFACE LEAKAGE     =           0.0000       SURFACE LEAKAGE     =           0.0000
           AG WELLS      =    52600000.0000             AG WELLS      =       1.1066E-07

               TOTAL OUT =   167366592.0000                 TOTAL OUT =          20.7762

                IN - OUT =       -3744.0000                  IN - OUT =       7.6294E-06

     PERCENT DISCREPANCY =          -0.00         PERCENT DISCREPANCY =           0.00






         TIME SUMMARY AT END OF TIME STEP    8 IN STRESS PERIOD    5
                    SECONDS     MINUTES      HOURS       DAYS        YEARS
                    -----------------------------------------------------------
   TIME STEP LENGTH  87667.      1461.1      24.352      1.0147     2.77799E-03
 STRESS PERIOD TIME 7.01333E+05  11689.      194.81      8.1173     2.22239E-02
         TOTAL TIME 8.67773E+06 1.44629E+05  2410.5      100.44     0.27498    
1
 
 SOLVING FOR HEAD 
                                                   Max.-Head-Change                         Max.-Flux-Residual
  Residual-Control   Outer-Iter.   Inner-Iter.     Column Row Layer    Maximum-Head-Change  Column Row Layer    Maximum-Flux-Residual          L2-NORM 
          0                 1           2             5    6     1       0.3641724337E-01       5    8    1         0.1994184669E+01      0.4531166217E+01
          0                 2           2             5    6     1      -0.3542386824E-02       5    8    1        -0.1994170320E+00      0.4530558228E+00
          0                 3           2             5    6     1       0.2412235854E-03       5    8    1         0.1395921185E-01      0.3170892379E-01
          0                 4           1             5    6     1      -0.9598495433E-05       5    8    1        -0.5709324935E-03      0.1296517552E-02

    ------------------------------------------------
       NWT REQUIRED            4 OUTER ITERATIONS 
       AND A TOTAL OF          7 INNER ITERATIONS.
    ------------------------------------------------

 OUTPUT CONTROL FOR STRESS PERIOD    5   TIME STEP    9
    PRINT BUDGET
    SAVE BUDGET
 UBDSV1 SAVING "         STORAGE" ON UNIT 102 AT TIME STEP  9, STRESS PERIOD   5
 UBDSV2 SAVING "   CONSTANT HEAD" ON UNIT 102 AT TIME STEP  9, STRESS PERIOD   5
 UBDSV1 SAVING "FLOW RIGHT FACE " ON UNIT 102 AT TIME STEP  9, STRESS PERIOD   5
 UBDSV1 SAVING "FLOW FRONT FACE " ON UNIT 102 AT TIME STEP  9, STRESS PERIOD   5

  HEAD DEP BOUNDS   PERIOD    5   STEP     9
 BOUNDARY      1   LAYER   1   ROW    13   COL     1   RATE   -0.289345    
 BOUNDARY      2   LAYER   1   ROW    14   COL     9   RATE    0.287889    



 STREAM LISTING     PERIOD      5   STEP        9

 LAYER ROW COL. STREAM  RCH.  FLOW INTO     FLOW TO   FLOW OUT OF   OVRLND.     DIRECT     STREAM       STREAM     STREAM     STREAM   STREAMBED  STREAMBED
                SEG.NO.  NO.  STRM. RCH.    AQUIFER    STRM. RCH.    RUNOFF     PRECIP       ET          HEAD       DEPTH      WIDTH   CONDCTNC.   GRADIENT

   1    1    1     1     1    1.0500E+01  1.5271E-01   1.0347E+01  0.000E+00  0.000E+00  0.000E+00  1.09396E+03  9.109E-01  8.677E+00  3.905E-02  1.304E+00
   1    2    2     1     2    1.0347E+01  2.3505E-01   1.0112E+01  0.000E+00  0.000E+00  0.000E+00  1.08896E+03  9.059E-01  8.597E+00  6.018E-02  1.302E+00
   1    3    3     1     3    1.0112E+01  1.9904E-01   9.9132E+00  0.000E+00  0.000E+00  0.000E+00  1.08332E+03  9.003E-01  8.505E+00  5.103E-02  1.300E+00
   1    3    4     1     4    9.9132E+00  1.8195E-01   9.7313E+00  0.000E+00  0.000E+00  0.000E+00  1.07830E+03  8.947E-01  8.417E+00  4.672E-02  1.298E+00
   1    4    5     2     1    7.7313E+00  2.8007E-01   7.4512E+00  0.000E+00  0.000E+00  0.000E+00  1.07252E+03  5.907E-01  1.200E+01  7.800E-02  1.197E+00
   1    5    6     2     2    7.4512E+00  2.1474E-01   7.2365E+00  0.000E+00  0.000E+00  0.000E+00  1.06709E+03  5.790E-01  1.200E+01  6.000E-02  1.193E+00
   1    6    6     2     3    7.2365E+00  2.1413E-01   7.0224E+00  0.000E+00  0.000E+00  0.000E+00  1.06236E+03  5.688E-01  1.200E+01  6.000E-02  1.190E+00
   1    7    6     2     4    7.0224E+00  2.1351E-01   6.8088E+00  0.000E+00  0.000E+00  0.000E+00  1.05763E+03  5.585E-01  1.200E+01  6.000E-02  1.186E+00
   1    8    6     2     5    6.8088E+00  2.1289E-01   6.5960E+00  0.000E+00  0.000E+00  0.000E+00  1.05291E+03  5.481E-01  1.200E+01  6.000E-02  1.183E+00
   1    3    5     3     1    2.0000E+00  2.8252E-01   1.7175E+00  0.000E+00  0.000E+00  0.000E+00  1.07555E+03  1.909E+00  9.636E+00  7.227E-02  1.955E+00
   1    3    6     3     2    1.7175E+00  2.4905E-01   1.4684E+00  0.000E+00  0.000E+00  0.000E+00  1.07264E+03  1.727E+00  8.909E+00  6.682E-02  1.864E+00
   1    3    7     3     3    1.4684E+00  1.9718E-01   1.2712E+00  0.000E+00  0.000E+00  0.000E+00  1.06987E+03  1.555E+00  8.218E+00  5.547E-02  1.777E+00
   1    4    8     3     4    1.2712E+00  2.2567E-01   1.0456E+00  0.000E+00  0.000E+00  0.000E+00  1.06682E+03  1.364E+00  7.455E+00  6.709E-02  1.682E+00
   1    5    8     3     5    1.0456E+00  1.5790E-01   8.8768E-01  0.000E+00  0.000E+00  0.000E+00  1.06362E+03  1.164E+00  6.655E+00  4.991E-02  1.582E+00
   1    6    8     3     6    8.8768E-01  5.5980E-02   8.3170E-01  0.000E+00  0.000E+00  0.000E+00  1.06158E+03  1.036E+00  6.145E+00  1.844E-02  1.518E+00
   1    5   10     4     1    1.0000E+01  9.0919E-02   9.9091E+00  0.000E+00  0.000E+00  0.000E+00  1.07836E+03  6.368E-01  1.000E+01  2.500E-02  1.212E+00
   1    5    9     4     2    9.9091E+00  1.8158E-01   9.7275E+00  0.000E+00  0.000E+00  0.000E+00  1.07154E+03  6.315E-01  1.000E+01  5.000E-02  1.211E+00
   1    6    8     4     3    9.7275E+00  1.2689E-01   9.6006E+00  0.000E+00  0.000E+00  0.000E+00  1.06381E+03  6.256E-01  1.000E+01  3.500E-02  1.209E+00
   1    6    8     5     1    1.0432E+01  2.2686E-01   1.0205E+01  0.000E+00  0.000E+00  0.000E+00  1.05868E+03  6.790E-01  1.542E+01  6.166E-02  1.226E+00
   1    7    7     5     2    1.0205E+01  2.7894E-01   9.9265E+00  0.000E+00  0.000E+00  0.000E+00  1.05417E+03  6.732E-01  1.519E+01  7.594E-02  1.224E+00
   1    8    7     5     3    9.9265E+00  1.9221E-01   9.7343E+00  0.000E+00  0.000E+00  0.000E+00  1.04992E+03  6.676E-01  1.497E+01  5.241E-02  1.223E+00
   1    8    6     5     4    9.7343E+00  1.3577E-01   9.5985E+00  0.000E+00  0.000E+00  0.000E+00  1.04691E+03  6.637E-01  1.482E+01  3.706E-02  1.221E+00
   1    9    6     6     1    1.6194E+01  2.3621E-01   1.5958E+01  0.000E+00  0.000E+00  0.000E+00  1.04366E+03  9.369E-01  1.200E+01  6.000E-02  1.312E+00
   1   10    7     6     2    1.5958E+01  2.3572E-01   1.5723E+01  0.000E+00  0.000E+00  0.000E+00  1.03911E+03  9.286E-01  1.200E+01  6.000E-02  1.310E+00
   1   11    7     6     3    1.5723E+01  2.3522E-01   1.5487E+01  0.000E+00  0.000E+00  0.000E+00  1.03456E+03  9.203E-01  1.200E+01  6.000E-02  1.307E+00
   1   12    7     6     4    1.5487E+01  2.3472E-01   1.5253E+01  0.000E+00  0.000E+00  0.000E+00  1.03000E+03  9.120E-01  1.200E+01  6.000E-02  1.304E+00
   1   13    7     6     5    1.5253E+01 -9.6470E-03   1.5262E+01  0.000E+00  0.000E+00  0.000E+00  1.02682E+03  9.079E-01  1.200E+01  2.400E-01 -1.340E-02
   1   14    9     7     1    1.5000E+02  1.3671E+00   1.4863E+02  0.000E+00  0.000E+00  0.000E+00  1.03987E+03  2.288E+00  5.529E+01  5.593E-01  8.148E-01
   1   13    8     7     2    1.4863E+02  1.9167E+00   1.4672E+02  0.000E+00  0.000E+00  0.000E+00  1.03478E+03  2.279E+00  5.526E+01  6.148E-01  1.039E+00
   1   13    7     7     3    1.4672E+02  1.5812E+00   1.4513E+02  0.000E+00  0.000E+00  0.000E+00  1.02969E+03  2.270E+00  5.521E+01  5.584E-01  9.439E-01
   1   13    6     8     1    1.6040E+02  9.6456E-01   1.5943E+02  0.000E+00  0.000E+00  0.000E+00  1.02476E+03  2.885E+00  4.184E+01  4.263E-01  7.542E-01
   1   13    5     8     2    1.5943E+02  2.1345E-01   1.5922E+02  0.000E+00  0.000E+00  0.000E+00  1.01851E+03  2.881E+00  4.178E+01  4.257E-01  1.671E-01
   1   13    4     8     3    1.5922E+02 -2.4045E+00   1.6162E+02  0.000E+00  0.000E+00  0.000E+00  1.01226E+03  2.889E+00  4.189E+01  4.268E+00 -1.878E-01
   1   13    3     8     4    1.6162E+02 -3.6909E+00   1.6531E+02  0.000E+00  0.000E+00  0.000E+00  1.00603E+03  2.909E+00  4.218E+01  4.299E+00 -2.862E-01
   1   13    2     8     5    1.6531E+02 -2.7049E+00   1.6802E+02  0.000E+00  0.000E+00  0.000E+00  9.99805E+02  2.930E+00  4.249E+01  4.330E+00 -2.082E-01
   1   13    1     8     6    1.6802E+02 -2.0720E+00   1.7009E+02  0.000E+00  0.000E+00  0.000E+00  9.94821E+02  2.946E+00  4.272E+01  2.612E+00 -2.644E-01
   1    8    6     9     1    0.0000E+00  0.0000E+00   0.0000E+00  0.000E+00  0.000E+00  0.000E+00  1.07875E+03  0.000E+00  4.000E+00  0.000E+00  1.000E+00
   1    8    5     9     2    0.0000E+00  0.0000E+00   0.0000E+00  0.000E+00  0.000E+00  0.000E+00  1.07825E+03  0.000E+00  4.000E+00  0.000E+00  1.000E+00



 UBDSV3 SAVING "           GW ET" ON UNIT  61 AT TIME STEP  9, STRESS PERIOD   5
 UBDSV3 SAVING "    UZF RECHARGE" ON UNIT  61 AT TIME STEP  9, STRESS PERIOD   5
 UBDSV3 SAVING " SURFACE LEAKAGE" ON UNIT  61 AT TIME STEP  9, STRESS PERIOD   5
 UBDSV3 SAVING "       HORT+DUNN" ON UNIT  61 AT TIME STEP  9, STRESS PERIOD   5
 UBDSV3 SAVING "  STORAGE CHANGE" ON UNIT  61 AT TIME STEP  9, STRESS PERIOD   5


UNSATURATED ZONE PACKAGE VOLUMETRIC BUDGET FOR  TIME STEP     9 STRESS PERIOD    5
  ------------------------------------------------------------------------------



     CUMULATIVE VOLUMES      L**3       RATES FOR THIS TIME STEP      L**3/T
     ------------------                 ------------------------

           IN:                                      IN:
           ---                                      ---
        INFILTRATION =    60606926.3131          INFILTRATION =           0.8475

          OUT:                                     OUT:
          ----                                     ----
              UZF ET =    10206857.4673                UZF ET =           4.5688
        UZF RECHARGE =       73224.0000          UZF RECHARGE =       0.0000E+00

            IN - OUT =    50326844.8458              IN - OUT =          -3.7213

          STORAGE:                                 STORAGE:
          --------                                 --------
      STORAGE CHANGE =    50347457.5494        STORAGE CHANGE =          -3.7213

 PERCENT DISCREPANCY IS DIFFERENCE BETWEEN IN-OUT MINUS CHANGE IN STORAGE
 DIVIDED BY THE AVERAGE OF IN AND OUT TIMES 100

 PERCENT DISCREPANCY =          -0.01     PERCENT DISCREPANCY =           0.00






 

            AG WELLS      PERIOD    5   STEP   9
 AG WELL      1   LAYER   1   ROW     6   COL     4   RATE     0.00000    
 AG WELL      2   LAYER   1   ROW     6   COL     5   RATE     0.00000    
 AG WELL      3   LAYER   1   ROW     7   COL     4   RATE     0.00000    
 AG WELL      4   LAYER   1   ROW     7   COL     5   RATE     0.00000    
 AG WELL      5   LAYER   1   ROW     8   COL     4   RATE     0.00000    
 AG WELL      6   LAYER   1   ROW     8   COL     5   RATE     0.00000    
 
 

   DIVERSION SEGMENTS     PERIOD    5   STEP   9
 SEGMENT      9   RATE     0.00000    
 
 

        SW IRRIGATION     PERIOD    5   STEP   9
 SEGMENT      9   ROW     6   COL     4   RATE     0.00000    
 SEGMENT      9   ROW     6   COL     5   RATE     0.00000    
 SEGMENT      9   ROW     7   COL     4   RATE     0.00000    
 SEGMENT      9   ROW     7   COL     5   RATE     0.00000    
 SEGMENT      9   ROW     8   COL     4   RATE     0.00000    
 SEGMENT      9   ROW     8   COL     5   RATE     0.00000    
 
 

        GW IRRIGATION     PERIOD    5   STEP   9
 AG WELL      1   ROW     6   COL     4   RATE     0.00000    
 AG WELL      2   ROW     6   COL     5   RATE     0.00000    
 AG WELL      3   ROW     7   COL     4   RATE     0.00000    
 AG WELL      4   ROW     7   COL     5   RATE     0.00000    
 AG WELL      5   ROW     8   COL     4   RATE     0.00000    
 AG WELL      6   ROW     8   COL     5   RATE     0.00000    
 
1
  VOLUMETRIC BUDGET FOR AGRICULTURAL FIELDS AT  END OF TIME STEP    9, STRESS PERIOD   5
  ------------------------------------------------------------------------------

     CUMULATIVE VOLUMES      L**3       RATES FOR THIS TIME STEP      L**3/T
     ------------------                 ------------------------

           IN:                                      IN:
           ---                                      ---
               AG WELLS  =    52600000.0000                 AG WELLS  =           0.0000
      DIVERSION SEGMENTS =      578240.5000        DIVERSION SEGMENTS =           0.0000
           GW IRRIGATION =           0.0000             GW IRRIGATION =           0.0000
           SW IRRIGATION =           0.0000             SW IRRIGATION =           0.0000
        SYSTEM LOSSES GW =           0.0000          SYSTEM LOSSES GW =           0.0000
        SYSTEM LOSSES SW =           0.0000          SYSTEM LOSSES SW =           0.0000

                TOTAL IN =    53178240.0000                  TOTAL IN =           0.0000

          OUT:                                     OUT:
          ----                                     ----
               AG WELLS  =           0.0000                 AG WELLS  =           0.0000
      DIVERSION SEGMENTS =           0.0000        DIVERSION SEGMENTS =           0.0000
           GW IRRIGATION =    52600000.0000             GW IRRIGATION =           0.0000
           SW IRRIGATION =      578252.0625             SW IRRIGATION =           0.0000
        SYSTEM LOSSES GW =           0.0000          SYSTEM LOSSES GW =           0.0000
        SYSTEM LOSSES SW =           0.0000          SYSTEM LOSSES SW =           0.0000

               TOTAL OUT =    53178252.0000                 TOTAL OUT =           0.0000

                IN - OUT =         -12.0000                  IN - OUT =           0.0000

     PERCENT DISCREPANCY =          -0.00         PERCENT DISCREPANCY =           0.00



1
  VOLUMETRIC BUDGET FOR ENTIRE MODEL AT END OF TIME STEP    9, STRESS PERIOD   5
  ------------------------------------------------------------------------------

     CUMULATIVE VOLUMES      L**3       RATES FOR THIS TIME STEP      L**3/T
     ------------------                 ------------------------

           IN:                                      IN:
           ---                                      ---
             STORAGE     =    64203536.0000               STORAGE     =           8.8503
       CONSTANT HEAD     =           0.0000         CONSTANT HEAD     =           0.0000
     HEAD DEP BOUNDS     =     2522924.2500       HEAD DEP BOUNDS     =           0.2879
      STREAM LEAKAGE     =   102354096.0000        STREAM LEAKAGE     =          11.2905
        UZF RECHARGE     =       73223.9531          UZF RECHARGE     =           0.0000
               GW ET     =           0.0000                 GW ET     =           0.0000
     SURFACE LEAKAGE     =           0.0000       SURFACE LEAKAGE     =           0.0000
           AG WELLS      =           0.0000             AG WELLS      =           0.0000

                TOTAL IN =   169153776.0000                  TOTAL IN =          20.4287

          OUT:                                     OUT:
          ----                                     ----
             STORAGE     =    24973514.0000               STORAGE     =           9.2574
       CONSTANT HEAD     =           0.0000         CONSTANT HEAD     =           0.0000
     HEAD DEP BOUNDS     =     2526245.5000       HEAD DEP BOUNDS     =           0.2893
      STREAM LEAKAGE     =    89057744.0000        STREAM LEAKAGE     =          10.8819
        UZF RECHARGE     =           0.0000          UZF RECHARGE     =           0.0000
               GW ET     =           0.0000                 GW ET     =           0.0000
     SURFACE LEAKAGE     =           0.0000       SURFACE LEAKAGE     =           0.0000
           AG WELLS      =    52600000.0000             AG WELLS      =           0.0000

               TOTAL OUT =   169157504.0000                 TOTAL OUT =          20.4287

                IN - OUT =       -3728.0000                  IN - OUT =       5.7220E-06

     PERCENT DISCREPANCY =          -0.00         PERCENT DISCREPANCY =           0.00






         TIME SUMMARY AT END OF TIME STEP    9 IN STRESS PERIOD    5
                    SECONDS     MINUTES      HOURS       DAYS        YEARS
                    -----------------------------------------------------------
   TIME STEP LENGTH  87667.      1461.1      24.352      1.0147     2.77799E-03
 STRESS PERIOD TIME 7.89000E+05  13150.      219.17      9.1319     2.50019E-02
         TOTAL TIME 8.76540E+06 1.46090E+05  2434.8      101.45     0.27776    
1
 
 SOLVING FOR HEAD 
                                                   Max.-Head-Change                         Max.-Flux-Residual
  Residual-Control   Outer-Iter.   Inner-Iter.     Column Row Layer    Maximum-Head-Change  Column Row Layer    Maximum-Flux-Residual          L2-NORM 
          0                 1           2             5    6     1       0.3469793965E-01       5    6    1         0.1892676075E+01      0.4340779564E+01
          0                 2           2             4    7     1      -0.1864555347E+01       5    6    1        -0.1001892665E+03      0.2453042779E+03
          0                 3           2             4    7     1       0.1269498424E+00       5    6    1         0.7011095793E+01      0.1716740335E+02
          0                 4           2             4    7     1      -0.5051546680E-02       5    6    1        -0.2866442095E+00      0.7021813822E+00
          0                 5           1             4    7     1       0.6228760653E-04       4    7    1         0.3629657589E-02      0.8954635989E-02

    ------------------------------------------------
       NWT REQUIRED            5 OUTER ITERATIONS 
       AND A TOTAL OF          9 INNER ITERATIONS.
    ------------------------------------------------

 OUTPUT CONTROL FOR STRESS PERIOD    5   TIME STEP   10
    PRINT BUDGET
    SAVE BUDGET
 UBDSV1 SAVING "         STORAGE" ON UNIT 102 AT TIME STEP 10, STRESS PERIOD   5
 UBDSV2 SAVING "   CONSTANT HEAD" ON UNIT 102 AT TIME STEP 10, STRESS PERIOD   5
 UBDSV1 SAVING "FLOW RIGHT FACE " ON UNIT 102 AT TIME STEP 10, STRESS PERIOD   5
 UBDSV1 SAVING "FLOW FRONT FACE " ON UNIT 102 AT TIME STEP 10, STRESS PERIOD   5

  HEAD DEP BOUNDS   PERIOD    5   STEP    10
 BOUNDARY      1   LAYER   1   ROW    13   COL     1   RATE   -0.289227    
 BOUNDARY      2   LAYER   1   ROW    14   COL     9   RATE    0.287890    



 STREAM LISTING     PERIOD      5   STEP       10

 LAYER ROW COL. STREAM  RCH.  FLOW INTO     FLOW TO   FLOW OUT OF   OVRLND.     DIRECT     STREAM       STREAM     STREAM     STREAM   STREAMBED  STREAMBED
                SEG.NO.  NO.  STRM. RCH.    AQUIFER    STRM. RCH.    RUNOFF     PRECIP       ET          HEAD       DEPTH      WIDTH   CONDCTNC.   GRADIENT

   1    1    1     1     1    1.0500E+01  1.5271E-01   1.0347E+01  0.000E+00  0.000E+00  0.000E+00  1.09396E+03  9.109E-01  8.677E+00  3.905E-02  1.304E+00
   1    2    2     1     2    1.0347E+01  2.3505E-01   1.0112E+01  0.000E+00  0.000E+00  0.000E+00  1.08896E+03  9.059E-01  8.597E+00  6.018E-02  1.302E+00
   1    3    3     1     3    1.0112E+01  1.9904E-01   9.9132E+00  0.000E+00  0.000E+00  0.000E+00  1.08332E+03  9.003E-01  8.505E+00  5.103E-02  1.300E+00
   1    3    4     1     4    9.9132E+00  1.8195E-01   9.7313E+00  0.000E+00  0.000E+00  0.000E+00  1.07830E+03  8.947E-01  8.417E+00  4.672E-02  1.298E+00
   1    4    5     2     1    7.7313E+00  2.8007E-01   7.4512E+00  0.000E+00  0.000E+00  0.000E+00  1.07252E+03  5.907E-01  1.200E+01  7.800E-02  1.197E+00
   1    5    6     2     2    7.4512E+00  2.1474E-01   7.2365E+00  0.000E+00  0.000E+00  0.000E+00  1.06709E+03  5.790E-01  1.200E+01  6.000E-02  1.193E+00
   1    6    6     2     3    7.2365E+00  2.1413E-01   7.0224E+00  0.000E+00  0.000E+00  0.000E+00  1.06236E+03  5.688E-01  1.200E+01  6.000E-02  1.190E+00
   1    7    6     2     4    7.0224E+00  2.1351E-01   6.8088E+00  0.000E+00  0.000E+00  0.000E+00  1.05763E+03  5.585E-01  1.200E+01  6.000E-02  1.186E+00
   1    8    6     2     5    6.8088E+00  2.1289E-01   6.5960E+00  0.000E+00  0.000E+00  0.000E+00  1.05291E+03  5.481E-01  1.200E+01  6.000E-02  1.183E+00
   1    3    5     3     1    2.0000E+00  2.8252E-01   1.7175E+00  0.000E+00  0.000E+00  0.000E+00  1.07555E+03  1.909E+00  9.636E+00  7.227E-02  1.955E+00
   1    3    6     3     2    1.7175E+00  2.4905E-01   1.4684E+00  0.000E+00  0.000E+00  0.000E+00  1.07264E+03  1.727E+00  8.909E+00  6.682E-02  1.864E+00
   1    3    7     3     3    1.4684E+00  1.9718E-01   1.2712E+00  0.000E+00  0.000E+00  0.000E+00  1.06987E+03  1.555E+00  8.218E+00  5.547E-02  1.777E+00
   1    4    8     3     4    1.2712E+00  2.2567E-01   1.0456E+00  0.000E+00  0.000E+00  0.000E+00  1.06682E+03  1.364E+00  7.455E+00  6.709E-02  1.682E+00
   1    5    8     3     5    1.0456E+00  1.5790E-01   8.8768E-01  0.000E+00  0.000E+00  0.000E+00  1.06362E+03  1.164E+00  6.655E+00  4.991E-02  1.582E+00
   1    6    8     3     6    8.8768E-01  5.5980E-02   8.3170E-01  0.000E+00  0.000E+00  0.000E+00  1.06158E+03  1.036E+00  6.145E+00  1.844E-02  1.518E+00
   1    5   10     4     1    1.0000E+01  9.0919E-02   9.9091E+00  0.000E+00  0.000E+00  0.000E+00  1.07836E+03  6.368E-01  1.000E+01  2.500E-02  1.212E+00
   1    5    9     4     2    9.9091E+00  1.8158E-01   9.7275E+00  0.000E+00  0.000E+00  0.000E+00  1.07154E+03  6.315E-01  1.000E+01  5.000E-02  1.211E+00
   1    6    8     4     3    9.7275E+00  1.2689E-01   9.6006E+00  0.000E+00  0.000E+00  0.000E+00  1.06381E+03  6.256E-01  1.000E+01  3.500E-02  1.209E+00
   1    6    8     5     1    1.0432E+01  2.2686E-01   1.0205E+01  0.000E+00  0.000E+00  0.000E+00  1.05868E+03  6.790E-01  1.542E+01  6.166E-02  1.226E+00
   1    7    7     5     2    1.0205E+01  2.7894E-01   9.9265E+00  0.000E+00  0.000E+00  0.000E+00  1.05417E+03  6.732E-01  1.519E+01  7.594E-02  1.224E+00
   1    8    7     5     3    9.9265E+00  1.9221E-01   9.7343E+00  0.000E+00  0.000E+00  0.000E+00  1.04992E+03  6.676E-01  1.497E+01  5.241E-02  1.223E+00
   1    8    6     5     4    9.7343E+00  1.3577E-01   9.5985E+00  0.000E+00  0.000E+00  0.000E+00  1.04691E+03  6.637E-01  1.482E+01  3.706E-02  1.221E+00
   1    9    6     6     1    9.5985E+00  2.2097E-01   9.3776E+00  0.000E+00  0.000E+00  0.000E+00  1.04341E+03  6.828E-01  1.200E+01  6.000E-02  1.228E+00
   1   10    7     6     2    9.3776E+00  2.2039E-01   9.1572E+00  0.000E+00  0.000E+00  0.000E+00  1.03885E+03  6.732E-01  1.200E+01  6.000E-02  1.224E+00
   1   11    7     6     3    9.1572E+00  2.1981E-01   8.9374E+00  0.000E+00  0.000E+00  0.000E+00  1.03430E+03  6.636E-01  1.200E+01  6.000E-02  1.221E+00
   1   12    7     6     4    8.9374E+00  2.1923E-01   8.7181E+00  0.000E+00  0.000E+00  0.000E+00  1.02974E+03  6.539E-01  1.200E+01  6.000E-02  1.218E+00
   1   13    7     6     5    8.7181E+00 -7.1175E-02   8.7893E+00  0.000E+00  0.000E+00  0.000E+00  1.02656E+03  6.506E-01  1.200E+01  2.400E-01 -9.885E-02
   1   14    9     7     1    1.5000E+02  1.3671E+00   1.4863E+02  0.000E+00  0.000E+00  0.000E+00  1.03987E+03  2.288E+00  5.529E+01  5.593E-01  8.148E-01
   1   13    8     7     2    1.4863E+02  1.9167E+00   1.4672E+02  0.000E+00  0.000E+00  0.000E+00  1.03478E+03  2.279E+00  5.526E+01  6.148E-01  1.039E+00
   1   13    7     7     3    1.4672E+02  1.5818E+00   1.4513E+02  0.000E+00  0.000E+00  0.000E+00  1.02969E+03  2.270E+00  5.521E+01  5.584E-01  9.442E-01
   1   13    6     8     1    1.5392E+02  9.3165E-01   1.5299E+02  0.000E+00  0.000E+00  0.000E+00  1.02472E+03  2.841E+00  4.119E+01  4.198E-01  7.398E-01
   1   13    5     8     2    1.5299E+02  1.9206E-01   1.5280E+02  0.000E+00  0.000E+00  0.000E+00  1.01846E+03  2.837E+00  4.114E+01  4.192E-01  1.527E-01
   1   13    4     8     3    1.5280E+02 -2.5315E+00   1.5533E+02  0.000E+00  0.000E+00  0.000E+00  1.01222E+03  2.845E+00  4.126E+01  4.204E+00 -2.007E-01
   1   13    3     8     4    1.5533E+02 -3.7976E+00   1.5913E+02  0.000E+00  0.000E+00  0.000E+00  1.00599E+03  2.867E+00  4.157E+01  4.236E+00 -2.988E-01
   1   13    2     8     5    1.5913E+02 -2.8210E+00   1.6195E+02  0.000E+00  0.000E+00  0.000E+00  9.99764E+02  2.889E+00  4.190E+01  4.270E+00 -2.202E-01
   1   13    1     8     6    1.6195E+02 -2.1387E+00   1.6409E+02  0.000E+00  0.000E+00  0.000E+00  9.94781E+02  2.906E+00  4.214E+01  2.576E+00 -2.767E-01
   1    8    6     9     1    6.5960E+00  0.0000E+00   6.5960E+00  0.000E+00  0.000E+00  0.000E+00  1.08052E+03  1.765E+00  4.000E+00  0.000E+00  1.588E+00
   1    8    5     9     2    6.5960E+00  0.0000E+00   6.5960E+00  0.000E+00  0.000E+00  0.000E+00  1.08002E+03  1.765E+00  4.000E+00  0.000E+00  1.588E+00



 UBDSV3 SAVING "           GW ET" ON UNIT  61 AT TIME STEP 10, STRESS PERIOD   5
 UBDSV3 SAVING "    UZF RECHARGE" ON UNIT  61 AT TIME STEP 10, STRESS PERIOD   5
 UBDSV3 SAVING " SURFACE LEAKAGE" ON UNIT  61 AT TIME STEP 10, STRESS PERIOD   5
 UBDSV3 SAVING "       HORT+DUNN" ON UNIT  61 AT TIME STEP 10, STRESS PERIOD   5
 UBDSV3 SAVING "  STORAGE CHANGE" ON UNIT  61 AT TIME STEP 10, STRESS PERIOD   5


UNSATURATED ZONE PACKAGE VOLUMETRIC BUDGET FOR  TIME STEP    10 STRESS PERIOD    5
  ------------------------------------------------------------------------------



     CUMULATIVE VOLUMES      L**3       RATES FOR THIS TIME STEP      L**3/T
     ------------------                 ------------------------

           IN:                                      IN:
           ---                                      ---
        INFILTRATION =   113859473.8090          INFILTRATION =         607.4435

          OUT:                                     OUT:
          ----                                     ----
              UZF ET =    10607274.9476                UZF ET =           4.5675
        UZF RECHARGE =       73224.0000          UZF RECHARGE =       0.0000E+00

            IN - OUT =   103178974.8614              IN - OUT =         602.8760

          STORAGE:                                 STORAGE:
          --------                                 --------
      STORAGE CHANGE =   103199590.0362        STORAGE CHANGE =         602.8761

 PERCENT DISCREPANCY IS DIFFERENCE BETWEEN IN-OUT MINUS CHANGE IN STORAGE
 DIVIDED BY THE AVERAGE OF IN AND OUT TIMES 100

 PERCENT DISCREPANCY =          -0.00     PERCENT DISCREPANCY =           0.00






 

            AG WELLS      PERIOD    5   STEP  10
 AG WELL      1   LAYER   1   ROW     6   COL     4   RATE    -100.000    
 AG WELL      2   LAYER   1   ROW     6   COL     5   RATE    -100.000    
 AG WELL      3   LAYER   1   ROW     7   COL     4   RATE    -100.000    
 AG WELL      4   LAYER   1   ROW     7   COL     5   RATE    -100.000    
 AG WELL      5   LAYER   1   ROW     8   COL     4   RATE    -100.000    
 AG WELL      6   LAYER   1   ROW     8   COL     5   RATE    -100.000    
 
 

   DIVERSION SEGMENTS     PERIOD    5   STEP  10
 SEGMENT      9   RATE     6.59595    
 
 

        SW IRRIGATION     PERIOD    5   STEP  10
 SEGMENT      9   ROW     6   COL     4   RATE     1.09935    
 SEGMENT      9   ROW     6   COL     5   RATE     1.09935    
 SEGMENT      9   ROW     7   COL     4   RATE     1.09935    
 SEGMENT      9   ROW     7   COL     5   RATE     1.09935    
 SEGMENT      9   ROW     8   COL     4   RATE     1.09935    
 SEGMENT      9   ROW     8   COL     5   RATE     1.09935    
 
 

        GW IRRIGATION     PERIOD    5   STEP  10
 AG WELL      1   ROW     6   COL     4   RATE     100.000    
 AG WELL      2   ROW     6   COL     5   RATE     100.000    
 AG WELL      3   ROW     7   COL     4   RATE     100.000    
 AG WELL      4   ROW     7   COL     5   RATE     100.000    
 AG WELL      5   ROW     8   COL     4   RATE     100.000    
 AG WELL      6   ROW     8   COL     5   RATE     100.000    
 
1
  VOLUMETRIC BUDGET FOR AGRICULTURAL FIELDS AT  END OF TIME STEP   10, STRESS PERIOD   5
  ------------------------------------------------------------------------------

     CUMULATIVE VOLUMES      L**3       RATES FOR THIS TIME STEP      L**3/T
     ------------------                 ------------------------

           IN:                                      IN:
           ---                                      ---
               AG WELLS  =   105200000.0000                 AG WELLS  =         600.0000
      DIVERSION SEGMENTS =     1156485.6250        DIVERSION SEGMENTS =           6.5960
           GW IRRIGATION =           0.0000             GW IRRIGATION =           0.0000
           SW IRRIGATION =           0.0000             SW IRRIGATION =           0.0000
        SYSTEM LOSSES GW =           0.0000          SYSTEM LOSSES GW =           0.0000
        SYSTEM LOSSES SW =           0.0000          SYSTEM LOSSES SW =           0.0000

                TOTAL IN =   106356488.0000                  TOTAL IN =         606.5959

          OUT:                                     OUT:
          ----                                     ----
               AG WELLS  =           0.0000                 AG WELLS  =           0.0000
      DIVERSION SEGMENTS =           0.0000        DIVERSION SEGMENTS =           0.0000
           GW IRRIGATION =   105200000.0000             GW IRRIGATION =         600.0000
           SW IRRIGATION =     1156508.7500             SW IRRIGATION =           6.5961
        SYSTEM LOSSES GW =           0.0000          SYSTEM LOSSES GW =           0.0000
        SYSTEM LOSSES SW =           0.0000          SYSTEM LOSSES SW =           0.0000

               TOTAL OUT =   106356512.0000                 TOTAL OUT =         606.5961

                IN - OUT =         -24.0000                  IN - OUT =      -1.2207E-04

     PERCENT DISCREPANCY =          -0.00         PERCENT DISCREPANCY =          -0.00



1
  VOLUMETRIC BUDGET FOR ENTIRE MODEL AT END OF TIME STEP   10, STRESS PERIOD   5
  ------------------------------------------------------------------------------

     CUMULATIVE VOLUMES      L**3       RATES FOR THIS TIME STEP      L**3/T
     ------------------                 ------------------------

           IN:                                      IN:
           ---                                      ---
             STORAGE     =   116865688.0000               STORAGE     =         600.7090
       CONSTANT HEAD     =           0.0000         CONSTANT HEAD     =           0.0000
     HEAD DEP BOUNDS     =     2548162.5000       HEAD DEP BOUNDS     =           0.2879
      STREAM LEAKAGE     =   103333792.0000        STREAM LEAKAGE     =          11.1752
        UZF RECHARGE     =       73223.9531          UZF RECHARGE     =           0.0000
               GW ET     =           0.0000                 GW ET     =           0.0000
     SURFACE LEAKAGE     =           0.0000       SURFACE LEAKAGE     =           0.0000
           AG WELLS      =           0.0000             AG WELLS      =           0.0000

                TOTAL IN =   222820864.0000                  TOTAL IN =         612.1721

          OUT:                                     OUT:
          ----                                     ----
             STORAGE     =    25019326.0000               STORAGE     =           0.5226
       CONSTANT HEAD     =           0.0000         CONSTANT HEAD     =           0.0000
     HEAD DEP BOUNDS     =     2551601.0000       HEAD DEP BOUNDS     =           0.2892
      STREAM LEAKAGE     =    90053632.0000        STREAM LEAKAGE     =          11.3600
        UZF RECHARGE     =           0.0000          UZF RECHARGE     =           0.0000
               GW ET     =           0.0000                 GW ET     =           0.0000
     SURFACE LEAKAGE     =           0.0000       SURFACE LEAKAGE     =           0.0000
           AG WELLS      =   105200000.0000             AG WELLS      =         600.0000

               TOTAL OUT =   222824560.0000                 TOTAL OUT =         612.1718

                IN - OUT =       -3696.0000                  IN - OUT =       3.6621E-04

     PERCENT DISCREPANCY =          -0.00         PERCENT DISCREPANCY =           0.00






         TIME SUMMARY AT END OF TIME STEP   10 IN STRESS PERIOD    5
                    SECONDS     MINUTES      HOURS       DAYS        YEARS
                    -----------------------------------------------------------
   TIME STEP LENGTH  87667.      1461.1      24.352      1.0147     2.77799E-03
 STRESS PERIOD TIME 8.76667E+05  14611.      243.52      10.147     2.77799E-02
         TOTAL TIME 8.85306E+06 1.47551E+05  2459.2      102.47     0.28054    
1
 
 SOLVING FOR HEAD 
                                                   Max.-Head-Change                         Max.-Flux-Residual
  Residual-Control   Outer-Iter.   Inner-Iter.     Column Row Layer    Maximum-Head-Change  Column Row Layer    Maximum-Flux-Residual          L2-NORM 
          0                 1           2             5    8     1       0.8685427881E-01       5    8    1         0.4776898533E+01      0.1039008651E+02
          0                 2           2             5    8     1      -0.8448429119E-02       5    8    1        -0.4776812388E+00      0.1038959574E+01
          0                 3           2             5    8     1       0.5753079169E-03       5    8    1         0.3343778285E-01      0.7272609960E-01
          0                 4           1             5    8     1      -0.2289203526E-04       5    8    1        -0.1367606858E-02      0.2974392052E-02

    ------------------------------------------------
       NWT REQUIRED            4 OUTER ITERATIONS 
       AND A TOTAL OF          7 INNER ITERATIONS.
    ------------------------------------------------

 NO OUTPUT CONTROL FOR STRESS PERIOD    5   TIME STEP   11
 
 SOLVING FOR HEAD 
                                                   Max.-Head-Change                         Max.-Flux-Residual
  Residual-Control   Outer-Iter.   Inner-Iter.     Column Row Layer    Maximum-Head-Change  Column Row Layer    Maximum-Flux-Residual          L2-NORM 
          0                 1           2             5    8     1       0.8214028400E-01       5    8    1         0.4513479285E+01      0.9916181298E+01
          0                 2           2             5    8     1      -0.7989899944E-02       5    8    1        -0.4513402932E+00      0.9915741484E+00
          0                 3           2             5    8     1       0.5440836427E-03       5    8    1         0.3159390657E-01      0.6940923572E-01
          0                 4           1             5    8     1      -0.2164959270E-04       5    8    1        -0.1292192245E-02      0.2838766719E-02

    ------------------------------------------------
       NWT REQUIRED            4 OUTER ITERATIONS 
       AND A TOTAL OF          7 INNER ITERATIONS.
    ------------------------------------------------

 NO OUTPUT CONTROL FOR STRESS PERIOD    5   TIME STEP   12
 
 SOLVING FOR HEAD 
                                                   Max.-Head-Change                         Max.-Flux-Residual
  Residual-Control   Outer-Iter.   Inner-Iter.     Column Row Layer    Maximum-Head-Change  Column Row Layer    Maximum-Flux-Residual          L2-NORM 
          0                 1           2             5    8     1       0.7775361405E-01       5    8    1         0.4268521713E+01      0.9474172678E+01
          0                 2           2             5    8     1      -0.7563208605E-02       5    8    1        -0.4268453778E+00      0.9473778476E+00
          0                 3           2             5    8     1       0.5150274273E-03       5    8    1         0.2987925380E-01      0.6631559938E-01
          0                 4           1             5    8     1      -0.2049341906E-04       5    8    1        -0.1222062895E-02      0.2712197385E-02

    ------------------------------------------------
       NWT REQUIRED            4 OUTER ITERATIONS 
       AND A TOTAL OF          7 INNER ITERATIONS.
    ------------------------------------------------

 NO OUTPUT CONTROL FOR STRESS PERIOD    5   TIME STEP   13
 
 SOLVING FOR HEAD 
                                                   Max.-Head-Change                         Max.-Flux-Residual
  Residual-Control   Outer-Iter.   Inner-Iter.     Column Row Layer    Maximum-Head-Change  Column Row Layer    Maximum-Flux-Residual          L2-NORM 
          0                 1           2             5    8     1       0.7366844328E-01       5    8    1         0.4040559087E+01      0.9061488985E+01
          0                 2           2             5    8     1      -0.7165843271E-02       5    8    1        -0.4040498410E+00      0.9061135697E+00
          0                 3           2             5    8     1       0.4879682194E-03       5    8    1         0.2828355867E-01      0.6342717225E-01
          0                 4           1             5    8     1      -0.1941670832E-04       5    8    1        -0.1156798887E-02      0.2594117418E-02

    ------------------------------------------------
       NWT REQUIRED            4 OUTER ITERATIONS 
       AND A TOTAL OF          7 INNER ITERATIONS.
    ------------------------------------------------

 NO OUTPUT CONTROL FOR STRESS PERIOD    5   TIME STEP   14
 
 SOLVING FOR HEAD 
                                                   Max.-Head-Change                         Max.-Flux-Residual
  Residual-Control   Outer-Iter.   Inner-Iter.     Column Row Layer    Maximum-Head-Change  Column Row Layer    Maximum-Flux-Residual          L2-NORM 
          0                 1           2             5    8     1       0.6986146003E-01       5    8    1         0.3828268065E+01      0.8675793725E+01
          0                 2           2             5    8     1      -0.6795536274E-02       5    8    1        -0.3828213484E+00      0.8675476660E+00
          0                 3           2             5    8     1       0.4627515978E-03       5    8    1         0.2679755760E-01      0.6072763429E-01
          0                 4           1             5    8     1      -0.1841331602E-04       5    8    1        -0.1096021404E-02      0.2483689542E-02

    ------------------------------------------------
       NWT REQUIRED            4 OUTER ITERATIONS 
       AND A TOTAL OF          7 INNER ITERATIONS.
    ------------------------------------------------

 NO OUTPUT CONTROL FOR STRESS PERIOD    5   TIME STEP   15
 
 SOLVING FOR HEAD 
                                                   Max.-Head-Change                         Max.-Flux-Residual
  Residual-Control   Outer-Iter.   Inner-Iter.     Column Row Layer    Maximum-Head-Change  Column Row Layer    Maximum-Flux-Residual          L2-NORM 
          0                 1           2             5    8     1       0.6631136171E-01       5    8    1         0.3630439974E+01      0.8314953482E+01
          0                 2           2             5    8     1      -0.6450216669E-02       5    8    1        -0.3630391030E+00      0.8314669673E+00
          0                 3           2             5    8     1       0.4392365362E-03       5    8    1         0.2541279466E-01      0.5820209594E-01
          0                 4           1             5    8     1      -0.1747762969E-04       5    8    1        -0.1039384529E-02      0.2380402465E-02

    ------------------------------------------------
       NWT REQUIRED            4 OUTER ITERATIONS 
       AND A TOTAL OF          7 INNER ITERATIONS.
    ------------------------------------------------

 NO OUTPUT CONTROL FOR STRESS PERIOD    5   TIME STEP   16
 
 SOLVING FOR HEAD 
                                                   Max.-Head-Change                         Max.-Flux-Residual
  Residual-Control   Outer-Iter.   Inner-Iter.     Column Row Layer    Maximum-Head-Change  Column Row Layer    Maximum-Flux-Residual          L2-NORM 
          0                 1           2             5    8     1       0.6299839868E-01       5    8    1         0.3445954614E+01      0.7977036930E+01
          0                 2           2             5    8     1      -0.6127962529E-02       5    8    1        -0.3445910422E+00      0.7976782007E+00
          0                 3           2             5    8     1       0.4172921573E-03       5    8    1         0.2412142536E-01      0.5583691735E-01
          0                 4           1             5    8     1      -0.1660444257E-04       5    8    1        -0.9865674685E-03      0.2283686976E-02

    ------------------------------------------------
       NWT REQUIRED            4 OUTER ITERATIONS 
       AND A TOTAL OF          7 INNER ITERATIONS.
    ------------------------------------------------

 NO OUTPUT CONTROL FOR STRESS PERIOD    5   TIME STEP   17
 
 SOLVING FOR HEAD 
                                                   Max.-Head-Change                         Max.-Flux-Residual
  Residual-Control   Outer-Iter.   Inner-Iter.     Column Row Layer    Maximum-Head-Change  Column Row Layer    Maximum-Flux-Residual          L2-NORM 
          0                 1           2             5    8     1       0.5990450491E-01       5    8    1         0.3273787993E+01      0.7660265166E+01
          0                 2           2             5    8     1      -0.5827016671E-02       5    8    1        -0.3273747772E+00      0.7660035934E+00
          0                 3           2             5    8     1       0.3967988018E-03       5    8    1         0.2291628237E-01      0.5361976209E-01
          0                 4           1             5    8     1      -0.1578899320E-04       5    8    1        -0.9372770699E-03      0.2193020926E-02

    ------------------------------------------------
       NWT REQUIRED            4 OUTER ITERATIONS 
       AND A TOTAL OF          7 INNER ITERATIONS.
    ------------------------------------------------

 NO OUTPUT CONTROL FOR STRESS PERIOD    5   TIME STEP   18
 
 SOLVING FOR HEAD 
                                                   Max.-Head-Change                         Max.-Flux-Residual
  Residual-Control   Outer-Iter.   Inner-Iter.     Column Row Layer    Maximum-Head-Change  Column Row Layer    Maximum-Flux-Residual          L2-NORM 
          0                 1           2             5    8     1       0.5701328337E-01       5    8    1         0.3113011260E+01      0.7363031031E+01
          0                 2           2             4    7     1      -0.1866191620E+01       5    8    1        -0.1003112975E+03      0.2455685419E+03
          0                 3           2             4    7     1       0.1270613143E+00       5    6    1         0.7019602398E+01      0.1718588764E+02
          0                 4           2             4    7     1      -0.5055981976E-02       5    6    1        -0.2869957300E+00      0.7029266477E+00
          0                 5           1             4    7     1       0.6234229643E-04       4    7    1         0.3632763965E-02      0.8960538902E-02

    ------------------------------------------------
       NWT REQUIRED            5 OUTER ITERATIONS 
       AND A TOTAL OF          9 INNER ITERATIONS.
    ------------------------------------------------

 NO OUTPUT CONTROL FOR STRESS PERIOD    5   TIME STEP   19
 
 SOLVING FOR HEAD 
                                                   Max.-Head-Change                         Max.-Flux-Residual
  Residual-Control   Outer-Iter.   Inner-Iter.     Column Row Layer    Maximum-Head-Change  Column Row Layer    Maximum-Flux-Residual          L2-NORM 
          0                 1           2             5    8     1       0.1083228153E+00       5    8    1         0.5943562131E+01      0.1323781544E+02
          0                 2           2             5    8     1      -0.1053666791E-01       5    8    1        -0.5943430245E+00      0.1323666983E+01
          0                 3           2             5    8     1       0.7175098813E-03       5    8    1         0.4160415463E-01      0.9265701800E-01
          0                 4           1             5    8     1      -0.2855038114E-04       5    8    1        -0.1701611716E-02      0.3789706122E-02

    ------------------------------------------------
       NWT REQUIRED            4 OUTER ITERATIONS 
       AND A TOTAL OF          7 INNER ITERATIONS.
    ------------------------------------------------

 NO OUTPUT CONTROL FOR STRESS PERIOD    5   TIME STEP   20
 
 SOLVING FOR HEAD 
                                                   Max.-Head-Change                         Max.-Flux-Residual
  Residual-Control   Outer-Iter.   Inner-Iter.     Column Row Layer    Maximum-Head-Change  Column Row Layer    Maximum-Flux-Residual          L2-NORM 
          0                 1           2             5    8     1       0.1026862872E+00       5    8    1         0.5629097532E+01      0.1267278570E+02
          0                 2           2             5    8     1      -0.9988405612E-02       5    8    1        -0.5628979470E+00      0.1267230224E+01
          0                 3           2             5    8     1       0.6801750585E-03       5    8    1         0.3940298519E-01      0.8870640193E-01
          0                 4           1             5    8     1      -0.2706479484E-04       5    8    1        -0.1611583821E-02      0.3628079893E-02

    ------------------------------------------------
       NWT REQUIRED            4 OUTER ITERATIONS 
       AND A TOTAL OF          7 INNER ITERATIONS.
    ------------------------------------------------

 NO OUTPUT CONTROL FOR STRESS PERIOD    5   TIME STEP   21
 
 SOLVING FOR HEAD 
                                                   Max.-Head-Change                         Max.-Flux-Residual
  Residual-Control   Outer-Iter.   Inner-Iter.     Column Row Layer    Maximum-Head-Change  Column Row Layer    Maximum-Flux-Residual          L2-NORM 
          0                 1           2             5    8     1       0.9743232854E-01       5    8    1         0.5336184084E+01      0.1214469403E+02
          0                 2           2             5    8     1      -0.9477355843E-02       5    8    1        -0.5336077998E+00      0.1214426088E+01
          0                 3           2             5    8     1       0.6453742961E-03       5    8    1         0.3735266267E-01      0.8501008193E-01
          0                 4           1             5    8     1      -0.2568004053E-04       5    8    1        -0.1527725566E-02      0.3476904954E-02

    ------------------------------------------------
       NWT REQUIRED            4 OUTER ITERATIONS 
       AND A TOTAL OF          7 INNER ITERATIONS.
    ------------------------------------------------

 NO OUTPUT CONTROL FOR STRESS PERIOD    5   TIME STEP   22
 
 SOLVING FOR HEAD 
                                                   Max.-Head-Change                         Max.-Flux-Residual
  Residual-Control   Outer-Iter.   Inner-Iter.     Column Row Layer    Maximum-Head-Change  Column Row Layer    Maximum-Flux-Residual          L2-NORM 
          0                 1           2             5    8     1       0.9253167117E-01       5    8    1         0.5063161033E+01      0.1165043829E+02
          0                 2           2             5    8     1      -0.9000670435E-02       5    8    1        -0.5063065359E+00      0.1165005006E+01
          0                 3           2             5    8     1       0.6129136414E-03       5    8    1         0.3544156353E-01      0.8155057436E-01
          0                 4           1             5    8     1      -0.2438840153E-04       5    8    1        -0.1449561551E-02      0.3335415435E-02

    ------------------------------------------------
       NWT REQUIRED            4 OUTER ITERATIONS 
       AND A TOTAL OF          7 INNER ITERATIONS.
    ------------------------------------------------

 NO OUTPUT CONTROL FOR STRESS PERIOD    5   TIME STEP   23
 
 SOLVING FOR HEAD 
                                                   Max.-Head-Change                         Max.-Flux-Residual
  Residual-Control   Outer-Iter.   Inner-Iter.     Column Row Layer    Maximum-Head-Change  Column Row Layer    Maximum-Flux-Residual          L2-NORM 
          0                 1           2             5    8     1       0.8795742932E-01       5    8    1         0.4808503144E+01      0.1118737632E+02
          0                 2           2             5    8     1      -0.8555734137E-02       5    8    1        -0.4808416371E+00      0.1118702786E+01
          0                 3           2             5    8     1       0.5826150014E-03       5    8    1         0.3365901124E-01      0.7830939888E-01
          0                 4           1             5    8     1      -0.2318279059E-04       5    8    1        -0.1376655094E-02      0.3202837605E-02

    ------------------------------------------------
       NWT REQUIRED            4 OUTER ITERATIONS 
       AND A TOTAL OF          7 INNER ITERATIONS.
    ------------------------------------------------

 NO OUTPUT CONTROL FOR STRESS PERIOD    5   TIME STEP   24
 
 SOLVING FOR HEAD 
                                                   Max.-Head-Change                         Max.-Flux-Residual
  Residual-Control   Outer-Iter.   Inner-Iter.     Column Row Layer    Maximum-Head-Change  Column Row Layer    Maximum-Flux-Residual          L2-NORM 
          0                 1           2             5    8     1       0.8368458665E-01       5    8    1         0.4570792954E+01      0.1075306932E+02
          0                 2           2             5    8     1      -0.8140114824E-02       5    8    1        -0.4570714323E+00      0.1075275743E+01
          0                 3           2             5    8     1       0.5543127551E-03       5    8    1         0.3199508865E-01      0.7526948756E-01
          0                 4           1             5    8     1      -0.2205661851E-04       5    8    1        -0.1308600608E-02      0.3078516952E-02

    ------------------------------------------------
       NWT REQUIRED            4 OUTER ITERATIONS 
       AND A TOTAL OF          7 INNER ITERATIONS.
    ------------------------------------------------

 NO OUTPUT CONTROL FOR STRESS PERIOD    5   TIME STEP   25
 
 SOLVING FOR HEAD 
                                                   Max.-Head-Change                         Max.-Flux-Residual
  Residual-Control   Outer-Iter.   Inner-Iter.     Column Row Layer    Maximum-Head-Change  Column Row Layer    Maximum-Flux-Residual          L2-NORM 
          0                 1           2             5    8     1       0.7969052591E-01       5    8    1         0.4348749061E+01      0.1034532716E+02
          0                 2           2             5    8     1      -0.7751611686E-02       5    8    1        -0.4348677427E+00      0.1034504723E+01
          0                 3           2             5    8     1       0.5278570335E-03       5    8    1         0.3044082309E-01      0.7241549087E-01
          0                 4           1             5    8     1      -0.2100392086E-04       5    8    1        -0.1245031086E-02      0.2961795806E-02

    ------------------------------------------------
       NWT REQUIRED            4 OUTER ITERATIONS 
       AND A TOTAL OF          7 INNER ITERATIONS.
    ------------------------------------------------

 NO OUTPUT CONTROL FOR STRESS PERIOD    5   TIME STEP   26
 
 SOLVING FOR HEAD 
                                                   Max.-Head-Change                         Max.-Flux-Residual
  Residual-Control   Outer-Iter.   Inner-Iter.     Column Row Layer    Maximum-Head-Change  Column Row Layer    Maximum-Flux-Residual          L2-NORM 
          0                 1           2             5    8     1       0.7595454305E-01       5    8    1         0.4141198802E+01      0.9962131641E+01
          0                 2           2             5    8     1      -0.7388210980E-02       5    8    1        -0.4141133156E+00      0.9961880243E+00
          0                 3           2             5    8     1       0.5031107056E-03       5    8    1         0.2898800673E-01      0.6973331021E-01
          0                 4           1             5    8     1      -0.2001924163E-04       5    8    1        -0.1185610838E-02      0.2852091006E-02

    ------------------------------------------------
       NWT REQUIRED            4 OUTER ITERATIONS 
       AND A TOTAL OF          7 INNER ITERATIONS.
    ------------------------------------------------

 NO OUTPUT CONTROL FOR STRESS PERIOD    5   TIME STEP   27
 
 SOLVING FOR HEAD 
                                                   Max.-Head-Change                         Max.-Flux-Residual
  Residual-Control   Outer-Iter.   Inner-Iter.     Column Row Layer    Maximum-Head-Change  Column Row Layer    Maximum-Flux-Residual          L2-NORM 
          0                 1           2             5    6     1       0.7260688903E-01       5    8    1         0.3947053044E+01      0.9601618878E+01
          0                 2           2             4    7     1      -0.1867791203E+01       5    8    1        -0.1003946993E+03      0.2457749602E+03
          0                 3           2             4    7     1       0.1271702246E+00       5    6    1         0.7025519206E+01      0.1720033234E+02
          0                 4           2             4    7     1      -0.5060315660E-02       5    6    1        -0.2872398044E+00      0.7035111590E+00
          0                 5           1             4    7     1       0.6239573222E-04       4    7    1         0.3635808122E-02      0.8965614596E-02

    ------------------------------------------------
       NWT REQUIRED            5 OUTER ITERATIONS 
       AND A TOTAL OF          9 INNER ITERATIONS.
    ------------------------------------------------

 NO OUTPUT CONTROL FOR STRESS PERIOD    5   TIME STEP   28
 
 SOLVING FOR HEAD 
                                                   Max.-Head-Change                         Max.-Flux-Residual
  Residual-Control   Outer-Iter.   Inner-Iter.     Column Row Layer    Maximum-Head-Change  Column Row Layer    Maximum-Flux-Residual          L2-NORM 
          0                 1           2             5    8     1       0.1231877157E+00       5    8    1         0.6745453970E+01      0.1531803770E+02
          0                 2           2             5    8     1      -0.1198256522E-01       5    8    1        -0.6745287037E+00      0.1532112609E+01
          0                 3           2             5    8     1       0.8159706222E-03       5    8    1         0.4721718777E-01      0.1072479865E+00
          0                 4           1             5    8     1      -0.3246822380E-04       5    8    1        -0.1931184926E-02      0.4386406677E-02

    ------------------------------------------------
       NWT REQUIRED            4 OUTER ITERATIONS 
       AND A TOTAL OF          7 INNER ITERATIONS.
    ------------------------------------------------

 NO OUTPUT CONTROL FOR STRESS PERIOD    5   TIME STEP   29
 
 SOLVING FOR HEAD 
                                                   Max.-Head-Change                         Max.-Flux-Residual
  Residual-Control   Outer-Iter.   Inner-Iter.     Column Row Layer    Maximum-Head-Change  Column Row Layer    Maximum-Flux-Residual          L2-NORM 
          0                 1           2             5    8     1       0.1170254773E+00       5    8    1         0.6401525368E+01      0.1471136751E+02
          0                 2           2             5    8     1      -0.1138317529E-01       5    8    1        -0.6401377874E+00      0.1470895408E+01
          0                 3           2             5    8     1       0.7751541180E-03       5    8    1         0.4480980419E-01      0.1029465930E+00
          0                 4           1             5    8     1      -0.3084409837E-04       5    8    1        -0.1832722897E-02      0.4209508913E-02

    ------------------------------------------------
       NWT REQUIRED            4 OUTER ITERATIONS 
       AND A TOTAL OF          7 INNER ITERATIONS.
    ------------------------------------------------

 NO OUTPUT CONTROL FOR STRESS PERIOD    5   TIME STEP   30



 STREAM LISTING     PERIOD      5   STEP       30

 LAYER ROW COL. STREAM  RCH.  FLOW INTO     FLOW TO   FLOW OUT OF   OVRLND.     DIRECT     STREAM       STREAM     STREAM     STREAM   STREAMBED  STREAMBED
                SEG.NO.  NO.  STRM. RCH.    AQUIFER    STRM. RCH.    RUNOFF     PRECIP       ET          HEAD       DEPTH      WIDTH   CONDCTNC.   GRADIENT

   1    1    1     1     1    3.7125E+01  2.9395E-01   3.6831E+01  0.000E+00  0.000E+00  0.000E+00  1.09436E+03  1.309E+00  1.516E+01  6.821E-02  1.436E+00
   1    2    2     1     2    3.6831E+01  4.5518E-01   3.6376E+01  0.000E+00  0.000E+00  0.000E+00  1.08936E+03  1.306E+00  1.510E+01  1.057E-01  1.435E+00
   1    3    3     1     3    3.6376E+01  3.8814E-01   3.5988E+01  0.000E+00  0.000E+00  0.000E+00  1.08372E+03  1.303E+00  1.503E+01  9.020E-02  1.434E+00
   1    3    4     1     4    3.5988E+01  3.5737E-01   3.5631E+01  0.000E+00  0.000E+00  0.000E+00  1.07871E+03  1.300E+00  1.497E+01  8.311E-02  1.433E+00
   1    4    5     2     1    3.3631E+01  3.4618E-01   3.3284E+01  0.000E+00  0.000E+00  0.000E+00  1.07337E+03  1.438E+00  1.200E+01  7.800E-02  1.479E+00
   1    5    6     2     2    3.3284E+01  2.6582E-01   3.3019E+01  0.000E+00  0.000E+00  0.000E+00  1.06794E+03  1.430E+00  1.200E+01  6.000E-02  1.477E+00
   1    6    6     2     3    3.3019E+01  2.6541E-01   3.2753E+01  0.000E+00  0.000E+00  0.000E+00  1.06322E+03  1.423E+00  1.200E+01  6.000E-02  1.474E+00
   1    7    6     2     4    3.2753E+01  2.6499E-01   3.2488E+01  0.000E+00  0.000E+00  0.000E+00  1.05849E+03  1.417E+00  1.200E+01  6.000E-02  1.472E+00
   1    8    6     2     5    3.2488E+01  2.6458E-01   3.2224E+01  0.000E+00  0.000E+00  0.000E+00  1.05377E+03  1.410E+00  1.200E+01  6.000E-02  1.470E+00
   1    3    5     3     1    2.0000E+00  2.8252E-01   1.7175E+00  0.000E+00  0.000E+00  0.000E+00  1.07555E+03  1.909E+00  9.636E+00  7.227E-02  1.955E+00
   1    3    6     3     2    1.7175E+00  2.4905E-01   1.4684E+00  0.000E+00  0.000E+00  0.000E+00  1.07264E+03  1.727E+00  8.909E+00  6.682E-02  1.864E+00
   1    3    7     3     3    1.4684E+00  1.9718E-01   1.2712E+00  0.000E+00  0.000E+00  0.000E+00  1.06987E+03  1.555E+00  8.218E+00  5.547E-02  1.777E+00
   1    4    8     3     4    1.2712E+00  2.2567E-01   1.0456E+00  0.000E+00  0.000E+00  0.000E+00  1.06682E+03  1.364E+00  7.455E+00  6.709E-02  1.682E+00
   1    5    8     3     5    1.0456E+00  1.5790E-01   8.8768E-01  0.000E+00  0.000E+00  0.000E+00  1.06362E+03  1.164E+00  6.655E+00  4.991E-02  1.582E+00
   1    6    8     3     6    8.8768E-01  5.5980E-02   8.3170E-01  0.000E+00  0.000E+00  0.000E+00  1.06158E+03  1.036E+00  6.145E+00  1.844E-02  1.518E+00
   1    5   10     4     1    1.0000E+01  9.0919E-02   9.9091E+00  0.000E+00  0.000E+00  0.000E+00  1.07836E+03  6.368E-01  1.000E+01  2.500E-02  1.212E+00
   1    5    9     4     2    9.9091E+00  1.8158E-01   9.7275E+00  0.000E+00  0.000E+00  0.000E+00  1.07154E+03  6.315E-01  1.000E+01  5.000E-02  1.211E+00
   1    6    8     4     3    9.7275E+00  1.2689E-01   9.6006E+00  0.000E+00  0.000E+00  0.000E+00  1.06381E+03  6.256E-01  1.000E+01  3.500E-02  1.209E+00
   1    6    8     5     1    1.0432E+01  2.2686E-01   1.0205E+01  0.000E+00  0.000E+00  0.000E+00  1.05868E+03  6.790E-01  1.542E+01  6.166E-02  1.226E+00
   1    7    7     5     2    1.0205E+01  2.7894E-01   9.9265E+00  0.000E+00  0.000E+00  0.000E+00  1.05417E+03  6.732E-01  1.519E+01  7.594E-02  1.224E+00
   1    8    7     5     3    9.9265E+00  1.9221E-01   9.7343E+00  0.000E+00  0.000E+00  0.000E+00  1.04992E+03  6.676E-01  1.497E+01  5.241E-02  1.223E+00
   1    8    6     5     4    9.7343E+00  1.3577E-01   9.5985E+00  0.000E+00  0.000E+00  0.000E+00  1.04691E+03  6.637E-01  1.482E+01  3.706E-02  1.221E+00
   1    9    6     6     1    4.1822E+01  2.7956E-01   4.1542E+01  0.000E+00  0.000E+00  0.000E+00  1.04439E+03  1.659E+00  1.200E+01  6.000E-02  1.553E+00
   1   10    7     6     2    4.1542E+01  2.7916E-01   4.1263E+01  0.000E+00  0.000E+00  0.000E+00  1.03983E+03  1.653E+00  1.200E+01  6.000E-02  1.551E+00
   1   11    7     6     3    4.1263E+01  2.7876E-01   4.0985E+01  0.000E+00  0.000E+00  0.000E+00  1.03528E+03  1.646E+00  1.200E+01  6.000E-02  1.549E+00
   1   12    7     6     4    4.0985E+01  2.7836E-01   4.0706E+01  0.000E+00  0.000E+00  0.000E+00  1.03073E+03  1.639E+00  1.200E+01  6.000E-02  1.546E+00
   1   13    7     6     5    4.0706E+01  1.6544E-02   4.0690E+01  0.000E+00  0.000E+00  0.000E+00  1.02754E+03  1.636E+00  1.200E+01  2.400E-02  2.298E-01
   1   14    9     7     1    1.5000E+02  1.3674E+00   1.4863E+02  0.000E+00  0.000E+00  0.000E+00  1.03987E+03  2.288E+00  5.529E+01  5.593E-01  8.150E-01
   1   13    8     7     2    1.4863E+02  1.9160E+00   1.4672E+02  0.000E+00  0.000E+00  0.000E+00  1.03478E+03  2.279E+00  5.526E+01  6.148E-01  1.039E+00
   1   13    7     7     3    1.4672E+02  1.5822E+00   1.4513E+02  0.000E+00  0.000E+00  0.000E+00  1.02969E+03  2.270E+00  5.521E+01  5.584E-01  9.445E-01
   1   13    6     8     1    1.8582E+02  1.0960E+00   1.8473E+02  0.000E+00  0.000E+00  0.000E+00  1.02492E+03  3.049E+00  4.421E+01  4.505E-01  8.109E-01
   1   13    5     8     2    1.8473E+02  3.0338E-01   1.8442E+02  0.000E+00  0.000E+00  0.000E+00  1.01867E+03  3.045E+00  4.415E+01  4.499E-01  2.248E-01
   1   13    4     8     3    1.8442E+02 -1.7483E+00   1.8617E+02  0.000E+00  0.000E+00  0.000E+00  1.01242E+03  3.049E+00  4.421E+01  4.505E+00 -1.293E-01
   1   13    3     8     4    1.8617E+02 -3.1063E+00   1.8928E+02  0.000E+00  0.000E+00  0.000E+00  1.00619E+03  3.064E+00  4.443E+01  4.527E+00 -2.287E-01
   1   13    2     8     5    1.8928E+02 -2.0635E+00   1.9134E+02  0.000E+00  0.000E+00  0.000E+00  9.99955E+02  3.080E+00  4.466E+01  4.551E+00 -1.511E-01
   1   13    1     8     6    1.9134E+02 -1.7141E+00   1.9306E+02  0.000E+00  0.000E+00  0.000E+00  9.94966E+02  3.091E+00  4.482E+01  2.741E+00 -2.085E-01
   1    8    6     9     1    4.4264E-07  0.0000E+00   4.4264E-07  0.000E+00  0.000E+00  0.000E+00  1.07875E+03  7.379E-05  4.000E+00  0.000E+00  1.000E+00
   1    8    5     9     2    4.4264E-07  0.0000E+00   4.4264E-07  0.000E+00  0.000E+00  0.000E+00  1.07825E+03  7.379E-05  4.000E+00  0.000E+00  1.000E+00





UNSATURATED ZONE PACKAGE VOLUMETRIC BUDGET FOR  TIME STEP    30 STRESS PERIOD    5
  ------------------------------------------------------------------------------



     CUMULATIVE VOLUMES      L**3       RATES FOR THIS TIME STEP      L**3/T
     ------------------                 ------------------------

           IN:                                      IN:
           ---                                      ---
        INFILTRATION =   221701924.2678          INFILTRATION =           0.8475

          OUT:                                     OUT:
          ----                                     ----
              UZF ET =    18615906.1777                UZF ET =           4.5675
        UZF RECHARGE =       73224.0000          UZF RECHARGE =       0.0000E+00

            IN - OUT =   203012794.0901              IN - OUT =          -3.7200

          STORAGE:                                 STORAGE:
          --------                                 --------
      STORAGE CHANGE =   203180066.8599        STORAGE CHANGE =          -3.7200

 PERCENT DISCREPANCY IS DIFFERENCE BETWEEN IN-OUT MINUS CHANGE IN STORAGE
 DIVIDED BY THE AVERAGE OF IN AND OUT TIMES 100

 PERCENT DISCREPANCY =          -0.02     PERCENT DISCREPANCY =           0.00






1
  VOLUMETRIC BUDGET FOR AGRICULTURAL FIELDS AT  END OF TIME STEP   30, STRESS PERIOD   5
  ------------------------------------------------------------------------------

     CUMULATIVE VOLUMES      L**3       RATES FOR THIS TIME STEP      L**3/T
     ------------------                 ------------------------

           IN:                                      IN:
           ---                                      ---
               AG WELLS  =   210400000.0000                 AG WELLS  =       1.1066E-07
      DIVERSION SEGMENTS =     2312976.0000        DIVERSION SEGMENTS =       4.4264E-07
           GW IRRIGATION =           0.0000             GW IRRIGATION =           0.0000
           SW IRRIGATION =           0.0000             SW IRRIGATION =           0.0000
        SYSTEM LOSSES GW =           0.0000          SYSTEM LOSSES GW =           0.0000
        SYSTEM LOSSES SW =           0.0000          SYSTEM LOSSES SW =           0.0000

                TOTAL IN =   212712976.0000                  TOTAL IN =       5.5330E-07

          OUT:                                     OUT:
          ----                                     ----
               AG WELLS  =           0.0000                 AG WELLS  =           0.0000
      DIVERSION SEGMENTS =           0.0000        DIVERSION SEGMENTS =           0.0000
           GW IRRIGATION =   210400000.0000             GW IRRIGATION =       1.1066E-07
           SW IRRIGATION =     2313022.2500             SW IRRIGATION =       4.4265E-07
        SYSTEM LOSSES GW =           0.0000          SYSTEM LOSSES GW =           0.0000
        SYSTEM LOSSES SW =           0.0000          SYSTEM LOSSES SW =           0.0000

               TOTAL OUT =   212713024.0000                 TOTAL OUT =       5.5331E-07

                IN - OUT =         -48.0000                  IN - OUT =      -8.8107E-12

     PERCENT DISCREPANCY =          -0.00         PERCENT DISCREPANCY =          -0.00



1
  VOLUMETRIC BUDGET FOR ENTIRE MODEL AT END OF TIME STEP   30, STRESS PERIOD   5
  ------------------------------------------------------------------------------

     CUMULATIVE VOLUMES      L**3       RATES FOR THIS TIME STEP      L**3/T
     ------------------                 ------------------------

           IN:                                      IN:
           ---                                      ---
             STORAGE     =   254404448.0000               STORAGE     =          27.8865
       CONSTANT HEAD     =           0.0000         CONSTANT HEAD     =           0.0000
     HEAD DEP BOUNDS     =     3052947.5000       HEAD DEP BOUNDS     =           0.2879
      STREAM LEAKAGE     =   123275600.0000        STREAM LEAKAGE     =          12.7005
        UZF RECHARGE     =       73223.9531          UZF RECHARGE     =           0.0000
               GW ET     =           0.0000                 GW ET     =           0.0000
     SURFACE LEAKAGE     =           0.0000       SURFACE LEAKAGE     =           0.0000
           AG WELLS      =           0.0000             AG WELLS      =           0.0000

                TOTAL IN =   380806208.0000                  TOTAL IN =          40.8749

          OUT:                                     OUT:
          ----                                     ----
             STORAGE     =    58824200.0000               STORAGE     =          31.9543
       CONSTANT HEAD     =           0.0000         CONSTANT HEAD     =           0.0000
     HEAD DEP BOUNDS     =     3057741.5000       HEAD DEP BOUNDS     =           0.2885
      STREAM LEAKAGE     =   108527896.0000        STREAM LEAKAGE     =           8.6321
        UZF RECHARGE     =           0.0000          UZF RECHARGE     =           0.0000
               GW ET     =           0.0000                 GW ET     =           0.0000
     SURFACE LEAKAGE     =           0.0000       SURFACE LEAKAGE     =           0.0000
           AG WELLS      =   210400000.0000             AG WELLS      =       1.1066E-07

               TOTAL OUT =   380809856.0000                 TOTAL OUT =          40.8749

                IN - OUT =       -3648.0000                  IN - OUT =       1.9073E-05

     PERCENT DISCREPANCY =          -0.00         PERCENT DISCREPANCY =           0.00






         TIME SUMMARY AT END OF TIME STEP   30 IN STRESS PERIOD    5
                    SECONDS     MINUTES      HOURS       DAYS        YEARS
                    -----------------------------------------------------------
   TIME STEP LENGTH  87667.      1461.1      24.352      1.0147     2.77799E-03
 STRESS PERIOD TIME 2.63000E+06  43833.      730.56      30.440     8.33397E-02
         TOTAL TIME 1.06064E+07 1.76773E+05  2946.2      122.76     0.33610    
1
1
                            STRESS PERIOD NO.    6, LENGTH =   2630000.    
                            -----------------------------------------------

                              NUMBER OF TIME STEPS =    30

                               MULTIPLIER FOR DELT =     1.000

                            INITIAL TIME STEP SIZE =   87666.66    

 REUSING NON-PARAMETER GHB CELLS FROM LAST STRESS PERIOD

      2 GHB CELLS

 REUSING STREAM SEGMENT DATA FROM LAST STRESS PERIOD



            AREAL INFILTRATION RATE
 READING ON UNIT   19 WITH FORMAT: (FREE)              

            1           2           3           4           5           6           7           8           9          10
 ........................................................................................................................
   1   1.0000E-10  2.0000E-10   0.000       0.000       0.000       0.000       0.000       0.000       0.000       0.000    
   2   2.0000E-10  1.0000E-10  2.0000E-10   0.000       0.000      8.0000E-10  8.0000E-10  5.0000E-10   0.000       0.000    
   3    0.000      5.0000E-10  1.0000E-10  1.0000E-10  8.0000E-10  8.0000E-10  5.0000E-10  5.0000E-10   0.000       0.000    
   4   8.0000E-10  5.0000E-10  1.0000E-10  1.0000E-10  1.0000E-10  1.0000E-10  1.0000E-10  1.0000E-10  2.0000E-10   0.000    
   5   8.0000E-10  5.0000E-10  1.0000E-10  1.0000E-10  1.0000E-10  1.0000E-10  1.0000E-10  1.0000E-10  1.0000E-10  1.0000E-10
   6   8.0000E-10  5.0000E-10  5.0000E-10  2.0000E-10  2.0000E-10  1.0000E-10  1.0000E-10  1.0000E-10  1.0000E-10  5.0000E-10
   7   8.0000E-10  5.0000E-10  5.0000E-10  2.0000E-10  2.0000E-10  1.0000E-10  1.0000E-10  2.0000E-10  2.0000E-10   0.000    
   8    0.000      5.0000E-10  5.0000E-10  2.0000E-10  2.0000E-10  1.0000E-10  1.0000E-10  2.0000E-10  5.0000E-10   0.000    
   9    0.000      5.0000E-10  5.0000E-10  2.0000E-10  2.0000E-10  1.0000E-10  1.0000E-10  2.0000E-10  5.0000E-10   0.000    
  10    0.000      5.0000E-10  5.0000E-10  2.0000E-10  2.0000E-10  1.0000E-10  1.0000E-10  2.0000E-10  5.0000E-10  8.0000E-10
  11    0.000      1.0000E-10  1.0000E-10  1.0000E-10  1.0000E-10  1.0000E-10  1.0000E-10  2.0000E-10  5.0000E-10   0.000    
  12   1.0000E-10  1.0000E-10  1.0000E-10  1.0000E-10  1.0000E-10  1.0000E-10  1.0000E-10  1.0000E-10  2.0000E-10   0.000    
  13   1.0000E-10  1.0000E-10  2.0000E-10  2.0000E-10  2.0000E-10  2.0000E-10  2.0000E-10  1.0000E-10  1.0000E-10   0.000    
  14    0.000      2.0000E-10  5.0000E-10  5.0000E-10  5.0000E-10  5.0000E-10  5.0000E-10  2.0000E-10  1.0000E-10   0.000    
  15    0.000       0.000      8.0000E-10  8.0000E-10  8.0000E-10  8.0000E-10   0.000       0.000       0.000       0.000    

                  ET RATE =  5.000000E-08

 USING ET EXTINCTION DEPTH FROM PREVIOUS STRESS PERIOD. CURRENT PERIOD IS:       6

 USING EXTINCTION WATER CONTENT FROM PREVIOUS STRESS PERIOD. CURRENT PERIOD IS:       6

 USING AIR ENTRY PRESSURE FROM PREVIOUS STRESS PERIOD. CURRENT PERIOD IS:       6

 USING ROOT PRESSURE HEAD FROM PREVIOUS STRESS PERIOD. CURRENT PERIOD IS:       6

 USING ROOT ACTIVITY FROM PREVIOUS STRESS PERIOD. CURRENT PERIOD IS:       6

 PROCESSING AG STRESS PERIOD DATA

 READING AG STRESS PERIOD DATA

 READING IRRIGATION SEGMENT

 READING IRRIGATION WELL

 READING SUPPLEMENTAL WELL

 END PROCESSING AG STRESS PERIOD DATA OPTIONS
 
 SOLVING FOR HEAD 
                                                   Max.-Head-Change                         Max.-Flux-Residual
  Residual-Control   Outer-Iter.   Inner-Iter.     Column Row Layer    Maximum-Head-Change  Column Row Layer    Maximum-Flux-Residual          L2-NORM 
          0                 1           2             5    8     1       0.1112745124E+00       5    8    1         0.6081309010E+01      0.1413090666E+02
          0                 2           2             5    8     1      -0.1082378378E-01       5    8    1        -0.6081175810E+00      0.1412877177E+01
          0                 3           2             5    8     1       0.7370614322E-03       5    8    1         0.4256837541E-01      0.9888718790E-01
          0                 4           1             5    8     1      -0.2932835543E-04       5    8    1        -0.1741048377E-02      0.4043640287E-02

    ------------------------------------------------
       NWT REQUIRED            4 OUTER ITERATIONS 
       AND A TOTAL OF          7 INNER ITERATIONS.
    ------------------------------------------------

 NO OUTPUT CONTROL FOR STRESS PERIOD    6   TIME STEP    1
 
 SOLVING FOR HEAD 
                                                   Max.-Head-Change                         Max.-Flux-Residual
  Residual-Control   Outer-Iter.   Inner-Iter.     Column Row Layer    Maximum-Head-Change  Column Row Layer    Maximum-Flux-Residual          L2-NORM 
          0                 1           2             5    8     1       0.1059034938E+00       5    8    1         0.5782463680E+01      0.1358687514E+02
          0                 2           2             5    8     1      -0.1030134782E-01       5    8    1        -0.5782342813E+00      0.1358498526E+01
          0                 3           2             5    8     1       0.7014853081E-03       5    8    1         0.4047653189E-01      0.9508241029E-01
          0                 4           1             5    8     1      -0.2791274922E-04       5    8    1        -0.1655491938E-02      0.3888108047E-02

    ------------------------------------------------
       NWT REQUIRED            4 OUTER ITERATIONS 
       AND A TOTAL OF          7 INNER ITERATIONS.
    ------------------------------------------------

 NO OUTPUT CONTROL FOR STRESS PERIOD    6   TIME STEP    2
 
 SOLVING FOR HEAD 
                                                   Max.-Head-Change                         Max.-Flux-Residual
  Residual-Control   Outer-Iter.   Inner-Iter.     Column Row Layer    Maximum-Head-Change  Column Row Layer    Maximum-Flux-Residual          L2-NORM 
          0                 1           2             5    8     1       0.1008834747E+00       5    8    1         0.5503349245E+01      0.1307641710E+02
          0                 2           2             5    8     1      -0.9813052395E-02       5    8    1        -0.5503239197E+00      0.1307474470E+01
          0                 3           2             5    8     1       0.6682340478E-03       5    8    1         0.3852279550E-01      0.9151219382E-01
          0                 4           1             5    8     1      -0.2658965138E-04       5    8    1        -0.1575584060E-02      0.3742182248E-02

    ------------------------------------------------
       NWT REQUIRED            4 OUTER ITERATIONS 
       AND A TOTAL OF          7 INNER ITERATIONS.
    ------------------------------------------------

 NO OUTPUT CONTROL FOR STRESS PERIOD    6   TIME STEP    3
 
 SOLVING FOR HEAD 
                                                   Max.-Head-Change                         Max.-Flux-Residual
  Residual-Control   Outer-Iter.   Inner-Iter.     Column Row Layer    Maximum-Head-Change  Column Row Layer    Maximum-Flux-Residual          L2-NORM 
          0                 1           2             5    8     1       0.9618837036E-01       5    8    1         0.5242488307E+01      0.1259693689E+02
          0                 2           2             5    6     1      -0.3185071265E-01       5    8    1        -0.1762778318E+01      0.4180503934E+01
          0                 3           2             4    7     1       0.2442442708E-01       5    8    1         0.1361934097E+01      0.3333081558E+01
          0                 4           2             4    7     1      -0.3713293326E-01       5    8    1        -0.2106307809E+01      0.5158839437E+01
          0                 5           2             4    7     1       0.3564122722E-01       4    7    1         0.2077293751E+01      0.5110905684E+01
          0                 6           2             4    7     1      -0.5617173075E-01       4    7    1        -0.3364578198E+01      0.8241495798E+01
          0                 7           2             4    7     1       0.1143836927E-01       4    7    1         0.7040514017E+00      0.1735914249E+01
          0                 8           2             4    7     1      -0.2131940757E-01       4    7    1        -0.1348367540E+01      0.3302815284E+01
          0                 9           2             4    7     1      -0.1961772360E-02       5    8    1        -0.1240882684E+00      0.3039392702E+00
          0                10           2             4    7     1      -0.1804987779E-03       5    8    1        -0.1141806050E-01      0.2796650885E-01
          0                11           1             4    7     1      -0.1660552714E-04       5    8    1        -0.1050498985E-02      0.2572984259E-02

    ------------------------------------------------
       NWT REQUIRED           11 OUTER ITERATIONS 
       AND A TOTAL OF         21 INNER ITERATIONS.
    ------------------------------------------------

 NO OUTPUT CONTROL FOR STRESS PERIOD    6   TIME STEP    4
 
 SOLVING FOR HEAD 
                                                   Max.-Head-Change                         Max.-Flux-Residual
  Residual-Control   Outer-Iter.   Inner-Iter.     Column Row Layer    Maximum-Head-Change  Column Row Layer    Maximum-Flux-Residual          L2-NORM 
          0                 1           2             5    8     1       0.9392446200E-01       5    8    1         0.5116101672E+01      0.1238648752E+02
          0                 2           2             5    8     1      -0.9136150134E-02       5    8    1        -0.5116005463E+00      0.1249045854E+01
          0                 3           2             5    8     1       0.6221393180E-03       5    8    1         0.3581214506E-01      0.8742016162E-01
          0                 4           1             5    8     1      -0.2475549981E-04       5    8    1        -0.1464718355E-02      0.3574700462E-02

    ------------------------------------------------
       NWT REQUIRED            4 OUTER ITERATIONS 
       AND A TOTAL OF          7 INNER ITERATIONS.
    ------------------------------------------------

 NO OUTPUT CONTROL FOR STRESS PERIOD    6   TIME STEP    5
 
 SOLVING FOR HEAD 
                                                   Max.-Head-Change                         Max.-Flux-Residual
  Residual-Control   Outer-Iter.   Inner-Iter.     Column Row Layer    Maximum-Head-Change  Column Row Layer    Maximum-Flux-Residual          L2-NORM 
          0                 1           2             5    6     1       0.8975813045E-01       5    8    1         0.4880857348E+01      0.1194903862E+02
          0                 2           2             5    6     1      -0.8730889788E-02       5    8    1        -0.4880769043E+00      0.1194760006E+01
          0                 3           2             5    6     1       0.5945424918E-03       5    8    1         0.3416548196E-01      0.8362326022E-01
          0                 4           1             5    6     1      -0.2365734587E-04       5    8    1        -0.1397369763E-02      0.3422459018E-02

    ------------------------------------------------
       NWT REQUIRED            4 OUTER ITERATIONS 
       AND A TOTAL OF          7 INNER ITERATIONS.
    ------------------------------------------------

 NO OUTPUT CONTROL FOR STRESS PERIOD    6   TIME STEP    6
 
 SOLVING FOR HEAD 
                                                   Max.-Head-Change                         Max.-Flux-Residual
  Residual-Control   Outer-Iter.   Inner-Iter.     Column Row Layer    Maximum-Head-Change  Column Row Layer    Maximum-Flux-Residual          L2-NORM 
          0                 1           2             5    6     1       0.8601379470E-01       5    6    1         0.4664849142E+01      0.1153785185E+02
          0                 2           2             5    6     1      -0.8366678193E-02       5    6    1        -0.4664767302E+00      0.1153658037E+01
          0                 3           2             5    6     1       0.5697409338E-03       5    6    1         0.3265346302E-01      0.8074734081E-01
          0                 4           1             5    6     1      -0.2267047035E-04       5    6    1        -0.1335528138E-02      0.3302013781E-02

    ------------------------------------------------
       NWT REQUIRED            4 OUTER ITERATIONS 
       AND A TOTAL OF          7 INNER ITERATIONS.
    ------------------------------------------------

 NO OUTPUT CONTROL FOR STRESS PERIOD    6   TIME STEP    7
 
 SOLVING FOR HEAD 
                                                   Max.-Head-Change                         Max.-Flux-Residual
  Residual-Control   Outer-Iter.   Inner-Iter.     Column Row Layer    Maximum-Head-Change  Column Row Layer    Maximum-Flux-Residual          L2-NORM 
          0                 1           2             5    6     1       0.8248660696E-01       5    6    1         0.4470250668E+01      0.1115011938E+02
          0                 2           2             5    6     1      -0.8023610332E-02       5    6    1        -0.4470175225E+00      0.1114894986E+01
          0                 3           2             5    6     1       0.5463791935E-03       5    6    1         0.3129131184E-01      0.7803481809E-01
          0                 4           1             5    6     1      -0.2174088636E-04       5    6    1        -0.1279816104E-02      0.3191045677E-02

    ------------------------------------------------
       NWT REQUIRED            4 OUTER ITERATIONS 
       AND A TOTAL OF          7 INNER ITERATIONS.
    ------------------------------------------------

 NO OUTPUT CONTROL FOR STRESS PERIOD    6   TIME STEP    8
 
 SOLVING FOR HEAD 
                                                   Max.-Head-Change                         Max.-Flux-Residual
  Residual-Control   Outer-Iter.   Inner-Iter.     Column Row Layer    Maximum-Head-Change  Column Row Layer    Maximum-Flux-Residual          L2-NORM 
          0                 1           2             5    6     1       0.7916174650E-01       5    6    1         0.4286934390E+01      0.1078411044E+02
          0                 2           2             5    6     1      -0.7766604666E-02       5    6    1        -0.4323381859E+00      0.1086266127E+01
          0                 3           2             5    6     1       0.3886657722E-03       5    6    1         0.2234024371E-01      0.5948333578E-01
          0                 4           1             5    6     1      -0.4388714920E-04       5    6    1        -0.2564629649E-02      0.6809037837E-02

    ------------------------------------------------
       NWT REQUIRED            4 OUTER ITERATIONS 
       AND A TOTAL OF          7 INNER ITERATIONS.
    ------------------------------------------------

 NO OUTPUT CONTROL FOR STRESS PERIOD    6   TIME STEP    9
 
 SOLVING FOR HEAD 
                                                   Max.-Head-Change                         Max.-Flux-Residual
  Residual-Control   Outer-Iter.   Inner-Iter.     Column Row Layer    Maximum-Head-Change  Column Row Layer    Maximum-Flux-Residual          L2-NORM 
          0                 1           2             5    6     1       0.7603274815E-01       5    6    1         0.4114521541E+01      0.1043901629E+02
          0                 2           2             4    7     1      -0.1869325453E+01       5    6    1        -0.1004114457E+03      0.2458770353E+03
          0                 3           2             4    7     1       0.1272745737E+00       5    6    1         0.7026703283E+01      0.1723256481E+02
          0                 4           2             4    7     1      -0.5064468403E-02       5    6    1        -0.2872872438E+00      0.7096188143E+00
          0                 5           1             7   13     1       0.7720913947E-04       7   13    1         0.4425791169E-02      0.1030961866E-01

    ------------------------------------------------
       NWT REQUIRED            5 OUTER ITERATIONS 
       AND A TOTAL OF          9 INNER ITERATIONS.
    ------------------------------------------------

 NO OUTPUT CONTROL FOR STRESS PERIOD    6   TIME STEP   10
 
 SOLVING FOR HEAD 
                                                   Max.-Head-Change                         Max.-Flux-Residual
  Residual-Control   Outer-Iter.   Inner-Iter.     Column Row Layer    Maximum-Head-Change  Column Row Layer    Maximum-Flux-Residual          L2-NORM 
          0                 1           2             5    8     1       0.1261559603E+00       5    8    1         0.6888974423E+01      0.1600651177E+02
          0                 2           2             5    8     1      -0.1227124480E-01       5    8    1        -0.6888823116E+00      0.1608802071E+01
          0                 3           2             5    8     1       0.8356284244E-03       5    8    1         0.4822192636E-01      0.1126106066E+00
          0                 4           1             5    8     1      -0.3325042743E-04       5    8    1        -0.1972278878E-02      0.4605398201E-02

    ------------------------------------------------
       NWT REQUIRED            4 OUTER ITERATIONS 
       AND A TOTAL OF          7 INNER ITERATIONS.
    ------------------------------------------------

 NO OUTPUT CONTROL FOR STRESS PERIOD    6   TIME STEP   11
 
 SOLVING FOR HEAD 
                                                   Max.-Head-Change                         Max.-Flux-Residual
  Residual-Control   Outer-Iter.   Inner-Iter.     Column Row Layer    Maximum-Head-Change  Column Row Layer    Maximum-Flux-Residual          L2-NORM 
          0                 1           2             5    8     1       0.1201646163E+00       5    8    1         0.6555757468E+01      0.1540884985E+02
          0                 2           2             5    8     1      -0.1168847734E-01       5    8    1        -0.6555617288E+00      0.1540740258E+01
          0                 3           2             5    8     1       0.7959439565E-03       5    8    1         0.4588947371E-01      0.1078479132E+00
          0                 4           1             5    8     1      -0.3167134590E-04       5    8    1        -0.1876881480E-02      0.4410729818E-02

    ------------------------------------------------
       NWT REQUIRED            4 OUTER ITERATIONS 
       AND A TOTAL OF          7 INNER ITERATIONS.
    ------------------------------------------------

 NO OUTPUT CONTROL FOR STRESS PERIOD    6   TIME STEP   12
 
 SOLVING FOR HEAD 
                                                   Max.-Head-Change                         Max.-Flux-Residual
  Residual-Control   Outer-Iter.   Inner-Iter.     Column Row Layer    Maximum-Head-Change  Column Row Layer    Maximum-Flux-Residual          L2-NORM 
          0                 1           2             5    8     1       0.1145630753E+00       5    8    1         0.6244418805E+01      0.1484844228E+02
          0                 2           2             5    8     1      -0.1114367563E-01       5    8    1        -0.6244288731E+00      0.1484750810E+01
          0                 3           2             5    8     1       0.7588448392E-03       5    8    1         0.4371016340E-01      0.1039290879E+00
          0                 4           1             5    8     1      -0.3019513801E-04       5    8    1        -0.1787747603E-02      0.4250450048E-02

    ------------------------------------------------
       NWT REQUIRED            4 OUTER ITERATIONS 
       AND A TOTAL OF          7 INNER ITERATIONS.
    ------------------------------------------------

 NO OUTPUT CONTROL FOR STRESS PERIOD    6   TIME STEP   13
 
 SOLVING FOR HEAD 
                                                   Max.-Head-Change                         Max.-Flux-Residual
  Residual-Control   Outer-Iter.   Inner-Iter.     Column Row Layer    Maximum-Head-Change  Column Row Layer    Maximum-Flux-Residual          L2-NORM 
          0                 1           2             5    8     1       0.1093219010E+00       5    8    1         0.5953327069E+01      0.1432182994E+02
          0                 2           2             5    8     1      -0.1063386571E-01       5    8    1        -0.5953206305E+00      0.1432099837E+01
          0                 3           2             5    8     1       0.7241285422E-03       5    8    1         0.4167257673E-01      0.1002439288E+00
          0                 4           1             5    8     1      -0.2881374473E-04       5    8    1        -0.1704410236E-02      0.4099770255E-02

    ------------------------------------------------
       NWT REQUIRED            4 OUTER ITERATIONS 
       AND A TOTAL OF          7 INNER ITERATIONS.
    ------------------------------------------------

 NO OUTPUT CONTROL FOR STRESS PERIOD    6   TIME STEP   14
 
 SOLVING FOR HEAD 
                                                   Max.-Head-Change                         Max.-Flux-Residual
  Residual-Control   Outer-Iter.   Inner-Iter.     Column Row Layer    Maximum-Head-Change  Column Row Layer    Maximum-Flux-Residual          L2-NORM 
          0                 1           2             5    8     1       0.1044144297E+00       5    8    1         0.5680969764E+01      0.1382625706E+02
          0                 2           2             4    7     1      -0.1870519532E+01       5    8    1        -0.1005680857E+03      0.2461596699E+03
          0                 3           2             4    7     1       0.1273560212E+00       5    8    1         0.7037602352E+01      0.1727179206E+02
          0                 4           2             4    7     1      -0.5067708584E-02       5    6    1        -0.2877334217E+00      0.7126120367E+00
          0                 5           1             7   13     1       0.7709712631E-04       7   13    1         0.4420748656E-02      0.1053490117E-01

    ------------------------------------------------
       NWT REQUIRED            5 OUTER ITERATIONS 
       AND A TOTAL OF          9 INNER ITERATIONS.
    ------------------------------------------------

 NO OUTPUT CONTROL FOR STRESS PERIOD    6   TIME STEP   15
 
 SOLVING FOR HEAD 
                                                   Max.-Head-Change                         Max.-Flux-Residual
  Residual-Control   Outer-Iter.   Inner-Iter.     Column Row Layer    Maximum-Head-Change  Column Row Layer    Maximum-Flux-Residual          L2-NORM 
          0                 1           2             5    8     1       0.1538248103E+00       5    8    1         0.8405289787E+01      0.1932782326E+02
          0                 2           2             4    7     1      -0.1871522812E+01       5    8    1        -0.1008405070E+03      0.2465848441E+03
          0                 3           2             4    7     1       0.1274246573E+00       5    8    1         0.7056782708E+01      0.1730190097E+02
          0                 4           2             4    7     1      -0.5070438104E-02       5    8    1        -0.2885199677E+00      0.7138983074E+00
          0                 5           1             7   13     1       0.7782216260E-04       7   13    1         0.4462251330E-02      0.1056417424E-01

    ------------------------------------------------
       NWT REQUIRED            5 OUTER ITERATIONS 
       AND A TOTAL OF          9 INNER ITERATIONS.
    ------------------------------------------------

 NO OUTPUT CONTROL FOR STRESS PERIOD    6   TIME STEP   16
 
 SOLVING FOR HEAD 
                                                   Max.-Head-Change                         Max.-Flux-Residual
  Residual-Control   Outer-Iter.   Inner-Iter.     Column Row Layer    Maximum-Head-Change  Column Row Layer    Maximum-Flux-Residual          L2-NORM 
          0                 1           2             5    8     1       0.2004328859E+00       5    8    1         0.1097275203E+02      0.2468495731E+02
          0                 2           2             4    7     1      -0.1872590220E+01       5    8    1        -0.1010972396E+03      0.2469953222E+03
          0                 3           2             4    7     1       0.1274976373E+00       5    8    1         0.7074857977E+01      0.1733079719E+02
          0                 4           2             4    7     1      -0.5073340579E-02       5    8    1        -0.2892696637E+00      0.7150535442E+00
          0                 5           1             7   13     1       0.7759223709E-04       7   13    1         0.4449082998E-02      0.1056910340E-01

    ------------------------------------------------
       NWT REQUIRED            5 OUTER ITERATIONS 
       AND A TOTAL OF          9 INNER ITERATIONS.
    ------------------------------------------------

 NO OUTPUT CONTROL FOR STRESS PERIOD    6   TIME STEP   17
 
 SOLVING FOR HEAD 
                                                   Max.-Head-Change                         Max.-Flux-Residual
  Residual-Control   Outer-Iter.   Inner-Iter.     Column Row Layer    Maximum-Head-Change  Column Row Layer    Maximum-Flux-Residual          L2-NORM 
          0                 1           2             5    8     1       0.2444369042E+00       5    8    1         0.1339455640E+02      0.2983637456E+02
          0                 2           2             4    7     1      -0.1873715281E+01       5    8    1        -0.1013394037E+03      0.2473917482E+03
          0                 3           2             4    7     1       0.1275745224E+00       5    8    1         0.7091906944E+01      0.1735872402E+02
          0                 4           2             4    7     1      -0.5076398552E-02       5    8    1        -0.2899766815E+00      0.7161735138E+00
          0                 5           1             7   13     1       0.7735979215E-04       7   13    1         0.4435775737E-02      0.1057384679E-01

    ------------------------------------------------
       NWT REQUIRED            5 OUTER ITERATIONS 
       AND A TOTAL OF          9 INNER ITERATIONS.
    ------------------------------------------------

 NO OUTPUT CONTROL FOR STRESS PERIOD    6   TIME STEP   18
 
 SOLVING FOR HEAD 
                                                   Max.-Head-Change                         Max.-Flux-Residual
  Residual-Control   Outer-Iter.   Inner-Iter.     Column Row Layer    Maximum-Head-Change  Column Row Layer    Maximum-Flux-Residual          L2-NORM 
          0                 1           2             5    8     1       0.2860193234E+00       5    8    1         0.1568100436E+02      0.3476982104E+02
          0                 2           2             4    7     1      -0.1874891912E+01       5    8    1        -0.1015680299E+03      0.2477746945E+03
          0                 3           2             4    7     1       0.1276548962E+00       5    8    1         0.7108002170E+01      0.1738571908E+02
          0                 4           2             4    7     1      -0.5079595440E-02       5    8    1        -0.2906440469E+00      0.7172597895E+00
          0                 5           1             7   13     1       0.7713448423E-04       7   13    1         0.4422874463E-02      0.1057897198E-01

    ------------------------------------------------
       NWT REQUIRED            5 OUTER ITERATIONS 
       AND A TOTAL OF          9 INNER ITERATIONS.
    ------------------------------------------------

 NO OUTPUT CONTROL FOR STRESS PERIOD    6   TIME STEP   19
 
 SOLVING FOR HEAD 
                                                   Max.-Head-Change                         Max.-Flux-Residual
  Residual-Control   Outer-Iter.   Inner-Iter.     Column Row Layer    Maximum-Head-Change  Column Row Layer    Maximum-Flux-Residual          L2-NORM 
          0                 1           2             5    8     1       0.3253477961E+00       5    8    1         0.1784155754E+02      0.3948743277E+02
          0                 2           2             4    7     1      -0.1876114488E+01       5    8    1        -0.1017840647E+03      0.2481447136E+03
          0                 3           2             4    7     1       0.1277383802E+00       5    8    1         0.7123210291E+01      0.1741181629E+02
          0                 4           2             4    7     1      -0.5082916182E-02       5    8    1        -0.2912745197E+00      0.7183126593E+00
          0                 5           1             7   13     1       0.7691360194E-04       7   13    1         0.4410227263E-02      0.1058393620E-01

    ------------------------------------------------
       NWT REQUIRED            5 OUTER ITERATIONS 
       AND A TOTAL OF          9 INNER ITERATIONS.
    ------------------------------------------------

 NO OUTPUT CONTROL FOR STRESS PERIOD    6   TIME STEP   20
 
 SOLVING FOR HEAD 
                                                   Max.-Head-Change                         Max.-Flux-Residual
  Residual-Control   Outer-Iter.   Inner-Iter.     Column Row Layer    Maximum-Head-Change  Column Row Layer    Maximum-Flux-Residual          L2-NORM 
          0                 1           2             5    8     1       0.3625772940E+00       5    8    1         0.1988495595E+02      0.4399769389E+02
          0                 2           2             4    7     1      -0.1877377693E+01       5    8    1        -0.1019883825E+03      0.2485023386E+03
          0                 3           2             4    7     1       0.1278246121E+00       5    8    1         0.7137592885E+01      0.1743705068E+02
          0                 4           2             4    7     1      -0.5086346359E-02       5    8    1        -0.2918706641E+00      0.7193331439E+00
          0                 5           1             7   13     1       0.7669890806E-04       7   13    1         0.4397933974E-02      0.1058982494E-01

    ------------------------------------------------
       NWT REQUIRED            5 OUTER ITERATIONS 
       AND A TOTAL OF          9 INNER ITERATIONS.
    ------------------------------------------------

 NO OUTPUT CONTROL FOR STRESS PERIOD    6   TIME STEP   21
 
 SOLVING FOR HEAD 
                                                   Max.-Head-Change                         Max.-Flux-Residual
  Residual-Control   Outer-Iter.   Inner-Iter.     Column Row Layer    Maximum-Head-Change  Column Row Layer    Maximum-Flux-Residual          L2-NORM 
          0                 1           2             5    8     1       0.3978505394E+00       5    8    1         0.2181924383E+02      0.4831033894E+02
          0                 2           2             4    7     1      -0.1878676638E+01       5    8    1        -0.1021817879E+03      0.2488480813E+03
          0                 3           2             4    7     1       0.1279132602E+00       5    8    1         0.7151206625E+01      0.1746145577E+02
          0                 4           2             4    7     1      -0.5089872760E-02       5    8    1        -0.2924348372E+00      0.7203223297E+00
          0                 5           1             7   13     1       0.7648782210E-04       7   13    1         0.4385846980E-02      0.1059532457E-01

    ------------------------------------------------
       NWT REQUIRED            5 OUTER ITERATIONS 
       AND A TOTAL OF          9 INNER ITERATIONS.
    ------------------------------------------------

 NO OUTPUT CONTROL FOR STRESS PERIOD    6   TIME STEP   22
 
 SOLVING FOR HEAD 
                                                   Max.-Head-Change                         Max.-Flux-Residual
  Residual-Control   Outer-Iter.   Inner-Iter.     Column Row Layer    Maximum-Head-Change  Column Row Layer    Maximum-Flux-Residual          L2-NORM 
          0                 1           2             5    8     1       0.4312989308E+00       5    8    1         0.2365182260E+02      0.5243557584E+02
          0                 2           2             4    7     1      -0.1880006734E+01       5    8    1        -0.1023650212E+03      0.2491824333E+03
          0                 3           2             4    7     1       0.1280040129E+00       5    8    1         0.7164103663E+01      0.1748506407E+02
          0                 4           2             4    7     1      -0.5093482990E-02       5    8    1        -0.2929692082E+00      0.7212807141E+00
          0                 5           1             7   13     1       0.7628201287E-04       7   13    1         0.4374064149E-02      0.1060197626E-01

    ------------------------------------------------
       NWT REQUIRED            5 OUTER ITERATIONS 
       AND A TOTAL OF          9 INNER ITERATIONS.
    ------------------------------------------------

 NO OUTPUT CONTROL FOR STRESS PERIOD    6   TIME STEP   23
 
 SOLVING FOR HEAD 
                                                   Max.-Head-Change                         Max.-Flux-Residual
  Residual-Control   Outer-Iter.   Inner-Iter.     Column Row Layer    Maximum-Head-Change  Column Row Layer    Maximum-Flux-Residual          L2-NORM 
          0                 1           2             5    8     1       0.4630443403E+00       5    8    1         0.2538955215E+02      0.5638351535E+02
          0                 2           2             4    7     1      -0.1881363731E+01       5    8    1        -0.1025387688E+03      0.2495058658E+03
          0                 3           2             4    7     1       0.1280965817E+00       5    8    1         0.7176332335E+01      0.1750790441E+02
          0                 4           2             4    7     1      -0.5097165583E-02       5    8    1        -0.2934757876E+00      0.7222095031E+00
          0                 5           1             7   13     1       0.7608226874E-04       7   13    1         0.4362624182E-02      0.1060821922E-01

    ------------------------------------------------
       NWT REQUIRED            5 OUTER ITERATIONS 
       AND A TOTAL OF          9 INNER ITERATIONS.
    ------------------------------------------------

 NO OUTPUT CONTROL FOR STRESS PERIOD    6   TIME STEP   24
 
 SOLVING FOR HEAD 
                                                   Max.-Head-Change                         Max.-Flux-Residual
  Residual-Control   Outer-Iter.   Inner-Iter.     Column Row Layer    Maximum-Head-Change  Column Row Layer    Maximum-Flux-Residual          L2-NORM 
          0                 1           2             5    8     1       0.4931988433E+00       5    8    1         0.2703873746E+02      0.6016391655E+02
          0                 2           2             4    7     1      -0.1882743705E+01       5    8    1        -0.1027036613E+03      0.2498188306E+03
          0                 3           2             4    7     1       0.1281907005E+00       5    8    1         0.7187937069E+01      0.1753000406E+02
          0                 4           2             4    7     1      -0.5100909944E-02       5    8    1        -0.2939564239E+00      0.7231068591E+00
          0                 5           1             7   13     1       0.7586353359E-04       7   13    1         0.4350100499E-02      0.1061397809E-01

    ------------------------------------------------
       NWT REQUIRED            5 OUTER ITERATIONS 
       AND A TOTAL OF          9 INNER ITERATIONS.
    ------------------------------------------------

 NO OUTPUT CONTROL FOR STRESS PERIOD    6   TIME STEP   25
 
 SOLVING FOR HEAD 
                                                   Max.-Head-Change                         Max.-Flux-Residual
  Residual-Control   Outer-Iter.   Inner-Iter.     Column Row Layer    Maximum-Head-Change  Column Row Layer    Maximum-Flux-Residual          L2-NORM 
          0                 1           2             5    8     1       0.5218663751E+00       5    8    1         0.2860522112E+02      0.6378606358E+02
          0                 2           2             4    7     1      -0.1884142992E+01       5    8    1        -0.1028602831E+03      0.2501217603E+03
          0                 3           2             4    7     1       0.1282861204E+00       5    8    1         0.7198959039E+01      0.1755139255E+02
          0                 4           2             4    7     1      -0.5104706149E-02       5    8    1        -0.2944128300E+00      0.7239791378E+00
          0                 5           1             7   13     1       0.7569476631E-04       7   13    1         0.4340438008E-02      0.1062034435E-01

    ------------------------------------------------
       NWT REQUIRED            5 OUTER ITERATIONS 
       AND A TOTAL OF          9 INNER ITERATIONS.
    ------------------------------------------------

 NO OUTPUT CONTROL FOR STRESS PERIOD    6   TIME STEP   26
 
 SOLVING FOR HEAD 
                                                   Max.-Head-Change                         Max.-Flux-Residual
  Residual-Control   Outer-Iter.   Inner-Iter.     Column Row Layer    Maximum-Head-Change  Column Row Layer    Maximum-Flux-Residual          L2-NORM 
          0                 1           2             5    8     1       0.5491428679E+00       5    8    1         0.3009439332E+02      0.6725873317E+02
          0                 2           2             4    7     1      -0.1885558236E+01       5    8    1        -0.1030091733E+03      0.2504150687E+03
          0                 3           2             4    7     1       0.1283826139E+00       5    8    1         0.7209436231E+01      0.1757210277E+02
          0                 4           2             4    7     1      -0.5108545134E-02       5    8    1        -0.2948465865E+00      0.7248225220E+00
          0                 5           1             7   13     1       0.7550657110E-04       7   13    1         0.4329545603E-02      0.1062596238E-01

    ------------------------------------------------
       NWT REQUIRED            5 OUTER ITERATIONS 
       AND A TOTAL OF          9 INNER ITERATIONS.
    ------------------------------------------------

 NO OUTPUT CONTROL FOR STRESS PERIOD    6   TIME STEP   27
 
 SOLVING FOR HEAD 
                                                   Max.-Head-Change                         Max.-Flux-Residual
  Residual-Control   Outer-Iter.   Inner-Iter.     Column Row Layer    Maximum-Head-Change  Column Row Layer    Maximum-Flux-Residual          L2-NORM 
          0                 1           2             5    8     1       0.5751174758E+00       5    8    1         0.3151125931E+02      0.7059019494E+02
          0                 2           2             4    7     1      -0.1886986317E+01       5    8    1        -0.1031508328E+03      0.2506991520E+03
          0                 3           2             4    7     1       0.1284799694E+00       5    8    1         0.7219403920E+01      0.1759213503E+02
          0                 4           2             4    7     1      -0.5112418477E-02       5    8    1        -0.2952591611E+00      0.7256363947E+00
          0                 5           1             7   13     1       0.7532409190E-04       7   13    1         0.4319097708E-02      0.1063197471E-01

    ------------------------------------------------
       NWT REQUIRED            5 OUTER ITERATIONS 
       AND A TOTAL OF          9 INNER ITERATIONS.
    ------------------------------------------------

 NO OUTPUT CONTROL FOR STRESS PERIOD    6   TIME STEP   28
 
 SOLVING FOR HEAD 
                                                   Max.-Head-Change                         Max.-Flux-Residual
  Residual-Control   Outer-Iter.   Inner-Iter.     Column Row Layer    Maximum-Head-Change  Column Row Layer    Maximum-Flux-Residual          L2-NORM 
          0                 1           2             5    8     1       0.5998723350E+00       5    8    1         0.3286042779E+02      0.7378818608E+02
          0                 2           2             4    7     1      -0.1888424340E+01       5    8    1        -0.1032857223E+03      0.2509743869E+03
          0                 3           2             4    7     1       0.1285779902E+00       5    8    1         0.7228894586E+01      0.1761150908E+02
          0                 4           2             4    7     1      -0.5116318354E-02       5    8    1        -0.2956519054E+00      0.7264209276E+00
          0                 5           1             7   13     1       0.7514601774E-04       7   13    1         0.4308936645E-02      0.1063732411E-01

    ------------------------------------------------
       NWT REQUIRED            5 OUTER ITERATIONS 
       AND A TOTAL OF          9 INNER ITERATIONS.
    ------------------------------------------------

 NO OUTPUT CONTROL FOR STRESS PERIOD    6   TIME STEP   29
 
 SOLVING FOR HEAD 
                                                   Max.-Head-Change                         Max.-Flux-Residual
  Residual-Control   Outer-Iter.   Inner-Iter.     Column Row Layer    Maximum-Head-Change  Column Row Layer    Maximum-Flux-Residual          L2-NORM 
          0                 1           2             5    8     1       0.6234828572E+00       5    8    1         0.3414618860E+02      0.7686142703E+02
          0                 2           2             4    7     1      -0.1889869690E+01       5    8    1        -0.1034142709E+03      0.2512411320E+03
          0                 3           2             4    7     1       0.1286764992E+00       5    8    1         0.7237938658E+01      0.1762351649E+02
          0                 4           2             4    7     1      -0.5120237710E-02       5    8    1        -0.2960260562E+00      0.7264091500E+00
          0                 5           1             7   13     1       0.7502112885E-04       7   13    1         0.4301364737E-02      0.1056368228E-01

    ------------------------------------------------
       NWT REQUIRED            5 OUTER ITERATIONS 
       AND A TOTAL OF          9 INNER ITERATIONS.
    ------------------------------------------------

 NO OUTPUT CONTROL FOR STRESS PERIOD    6   TIME STEP   30



 STREAM LISTING     PERIOD      6   STEP       30

 LAYER ROW COL. STREAM  RCH.  FLOW INTO     FLOW TO   FLOW OUT OF   OVRLND.     DIRECT     STREAM       STREAM     STREAM     STREAM   STREAMBED  STREAMBED
                SEG.NO.  NO.  STRM. RCH.    AQUIFER    STRM. RCH.    RUNOFF     PRECIP       ET          HEAD       DEPTH      WIDTH   CONDCTNC.   GRADIENT

   1    1    1     1     1    3.4633E+01  2.8494E-01   3.4348E+01  0.000E+00  0.000E+00  0.000E+00  1.09434E+03  1.289E+00  1.476E+01  6.643E-02  1.430E+00
   1    2    2     1     2    3.4348E+01  4.4115E-01   3.3907E+01  0.000E+00  0.000E+00  0.000E+00  1.08934E+03  1.286E+00  1.470E+01  1.029E-01  1.429E+00
   1    3    3     1     3    3.3907E+01  3.7610E-01   3.3531E+01  0.000E+00  0.000E+00  0.000E+00  1.08370E+03  1.283E+00  1.464E+01  8.782E-02  1.428E+00
   1    3    4     1     4    3.3531E+01  3.4622E-01   3.3185E+01  0.000E+00  0.000E+00  0.000E+00  1.07869E+03  1.280E+00  1.458E+01  8.090E-02  1.427E+00
   1    4    5     2     1    3.1185E+01  3.4119E-01   3.0843E+01  0.000E+00  0.000E+00  0.000E+00  1.07331E+03  1.374E+00  1.200E+01  7.800E-02  1.458E+00
   1    5    6     2     2    3.0843E+01  2.6198E-01   3.0581E+01  0.000E+00  0.000E+00  0.000E+00  1.06788E+03  1.366E+00  1.200E+01  6.000E-02  1.455E+00
   1    6    6     2     3    3.0581E+01  2.6156E-01   3.0320E+01  0.000E+00  0.000E+00  0.000E+00  1.06315E+03  1.359E+00  1.200E+01  6.000E-02  1.453E+00
   1    7    6     2     4    3.0320E+01  2.6113E-01   3.0059E+01  0.000E+00  0.000E+00  0.000E+00  1.05843E+03  1.352E+00  1.200E+01  6.000E-02  1.451E+00
   1    8    6     2     5    3.0059E+01  2.6071E-01   2.9798E+01  0.000E+00  0.000E+00  0.000E+00  1.05370E+03  1.345E+00  1.200E+01  6.000E-02  1.448E+00
   1    3    5     3     1    2.0000E+00  2.8252E-01   1.7175E+00  0.000E+00  0.000E+00  0.000E+00  1.07555E+03  1.909E+00  9.636E+00  7.227E-02  1.955E+00
   1    3    6     3     2    1.7175E+00  2.4905E-01   1.4684E+00  0.000E+00  0.000E+00  0.000E+00  1.07264E+03  1.727E+00  8.909E+00  6.682E-02  1.864E+00
   1    3    7     3     3    1.4684E+00  1.9718E-01   1.2712E+00  0.000E+00  0.000E+00  0.000E+00  1.06987E+03  1.555E+00  8.218E+00  5.547E-02  1.777E+00
   1    4    8     3     4    1.2712E+00  2.2567E-01   1.0456E+00  0.000E+00  0.000E+00  0.000E+00  1.06682E+03  1.364E+00  7.455E+00  6.709E-02  1.682E+00
   1    5    8     3     5    1.0456E+00  1.5790E-01   8.8768E-01  0.000E+00  0.000E+00  0.000E+00  1.06362E+03  1.164E+00  6.655E+00  4.991E-02  1.582E+00
   1    6    8     3     6    8.8768E-01  5.5980E-02   8.3170E-01  0.000E+00  0.000E+00  0.000E+00  1.06158E+03  1.036E+00  6.145E+00  1.844E-02  1.518E+00
   1    5   10     4     1    1.0000E+01  9.0919E-02   9.9091E+00  0.000E+00  0.000E+00  0.000E+00  1.07836E+03  6.368E-01  1.000E+01  2.500E-02  1.212E+00
   1    5    9     4     2    9.9091E+00  1.8158E-01   9.7275E+00  0.000E+00  0.000E+00  0.000E+00  1.07154E+03  6.315E-01  1.000E+01  5.000E-02  1.211E+00
   1    6    8     4     3    9.7275E+00  1.2689E-01   9.6006E+00  0.000E+00  0.000E+00  0.000E+00  1.06381E+03  6.256E-01  1.000E+01  3.500E-02  1.209E+00
   1    6    8     5     1    1.0432E+01  2.2686E-01   1.0205E+01  0.000E+00  0.000E+00  0.000E+00  1.05868E+03  6.790E-01  1.542E+01  6.166E-02  1.226E+00
   1    7    7     5     2    1.0205E+01  2.7894E-01   9.9265E+00  0.000E+00  0.000E+00  0.000E+00  1.05417E+03  6.732E-01  1.519E+01  7.594E-02  1.224E+00
   1    8    7     5     3    9.9265E+00  1.9221E-01   9.7343E+00  0.000E+00  0.000E+00  0.000E+00  1.04992E+03  6.676E-01  1.497E+01  5.241E-02  1.223E+00
   1    8    6     5     4    9.7343E+00  1.3577E-01   9.5985E+00  0.000E+00  0.000E+00  0.000E+00  1.04691E+03  6.637E-01  1.482E+01  3.706E-02  1.221E+00
   1    9    6     6     1    9.5985E+00  2.2097E-01   9.3776E+00  0.000E+00  0.000E+00  0.000E+00  1.04341E+03  6.828E-01  1.200E+01  6.000E-02  1.228E+00
   1   10    7     6     2    9.3776E+00  2.2039E-01   9.1572E+00  0.000E+00  0.000E+00  0.000E+00  1.03885E+03  6.732E-01  1.200E+01  6.000E-02  1.224E+00
   1   11    7     6     3    9.1572E+00  2.1981E-01   8.9374E+00  0.000E+00  0.000E+00  0.000E+00  1.03430E+03  6.636E-01  1.200E+01  6.000E-02  1.221E+00
   1   12    7     6     4    8.9374E+00  2.1923E-01   8.7181E+00  0.000E+00  0.000E+00  0.000E+00  1.02974E+03  6.539E-01  1.200E+01  6.000E-02  1.218E+00
   1   13    7     6     5    8.7181E+00 -6.9037E-02   8.7872E+00  0.000E+00  0.000E+00  0.000E+00  1.02656E+03  6.505E-01  1.200E+01  2.400E-01 -9.588E-02
   1   14    9     7     1    1.5000E+02  1.3677E+00   1.4863E+02  0.000E+00  0.000E+00  0.000E+00  1.03987E+03  2.288E+00  5.529E+01  5.593E-01  8.151E-01
   1   13    8     7     2    1.4863E+02  1.9157E+00   1.4672E+02  0.000E+00  0.000E+00  0.000E+00  1.03478E+03  2.279E+00  5.526E+01  6.148E-01  1.039E+00
   1   13    7     7     3    1.4672E+02  1.5868E+00   1.4513E+02  0.000E+00  0.000E+00  0.000E+00  1.02969E+03  2.270E+00  5.521E+01  5.584E-01  9.472E-01
   1   13    6     8     1    1.5392E+02  9.3449E-01   1.5298E+02  0.000E+00  0.000E+00  0.000E+00  1.02472E+03  2.841E+00  4.119E+01  4.198E-01  7.421E-01
   1   13    5     8     2    1.5298E+02  1.9595E-01   1.5279E+02  0.000E+00  0.000E+00  0.000E+00  1.01846E+03  2.837E+00  4.114E+01  4.192E-01  1.558E-01
   1   13    4     8     3    1.5279E+02 -2.4153E+00   1.5520E+02  0.000E+00  0.000E+00  0.000E+00  1.01222E+03  2.845E+00  4.125E+01  4.203E+00 -1.915E-01
   1   13    3     8     4    1.5520E+02 -3.6862E+00   1.5889E+02  0.000E+00  0.000E+00  0.000E+00  1.00599E+03  2.866E+00  4.155E+01  4.234E+00 -2.902E-01
   1   13    2     8     5    1.5889E+02 -2.6921E+00   1.6158E+02  0.000E+00  0.000E+00  0.000E+00  9.99762E+02  2.887E+00  4.187E+01  4.266E+00 -2.103E-01
   1   13    1     8     6    1.6158E+02 -2.0761E+00   1.6366E+02  0.000E+00  0.000E+00  0.000E+00  9.94778E+02  2.903E+00  4.210E+01  2.574E+00 -2.689E-01
   1    8    6     9     1    2.9798E+01  0.0000E+00   2.9798E+01  0.000E+00  0.000E+00  0.000E+00  1.08311E+03  4.363E+00  4.000E+00  0.000E+00  2.454E+00
   1    8    5     9     2    2.9798E+01  0.0000E+00   2.9798E+01  0.000E+00  0.000E+00  0.000E+00  1.08261E+03  4.363E+00  4.000E+00  0.000E+00  2.454E+00





UNSATURATED ZONE PACKAGE VOLUMETRIC BUDGET FOR  TIME STEP    30 STRESS PERIOD    6
  ------------------------------------------------------------------------------



     CUMULATIVE VOLUMES      L**3       RATES FOR THIS TIME STEP      L**3/T
     ------------------                 ------------------------

           IN:                                      IN:
           ---                                      ---
        INFILTRATION =  1170861287.7449          INFILTRATION =         630.6462

          OUT:                                     OUT:
          ----                                     ----
              UZF ET =    40484408.0228                UZF ET =           8.3175
        UZF RECHARGE =       73224.0000          UZF RECHARGE =       0.0000E+00

            IN - OUT =  1130303655.7221              IN - OUT =         622.3287

          STORAGE:                                 STORAGE:
          --------                                 --------
      STORAGE CHANGE =  1130529042.3893        STORAGE CHANGE =         622.3287

 PERCENT DISCREPANCY IS DIFFERENCE BETWEEN IN-OUT MINUS CHANGE IN STORAGE
 DIVIDED BY THE AVERAGE OF IN AND OUT TIMES 100

 PERCENT DISCREPANCY =          -0.00     PERCENT DISCREPANCY =           0.00






1
  VOLUMETRIC BUDGET FOR AGRICULTURAL FIELDS AT  END OF TIME STEP   30, STRESS PERIOD   6
  ------------------------------------------------------------------------------

     CUMULATIVE VOLUMES      L**3       RATES FOR THIS TIME STEP      L**3/T
     ------------------                 ------------------------

           IN:                                      IN:
           ---                                      ---
               AG WELLS  =  1106683520.0000                 AG WELLS  =         600.0000
      DIVERSION SEGMENTS =    52965944.0000        DIVERSION SEGMENTS =          29.7981
           GW IRRIGATION =           0.0000             GW IRRIGATION =           0.0000
           SW IRRIGATION =           0.0000             SW IRRIGATION =           0.0000
        SYSTEM LOSSES GW =           0.0000          SYSTEM LOSSES GW =           0.0000
        SYSTEM LOSSES SW =           0.0000          SYSTEM LOSSES SW =           0.0000

                TOTAL IN =  1159649408.0000                  TOTAL IN =         629.7981

          OUT:                                     OUT:
          ----                                     ----
               AG WELLS  =           0.0000                 AG WELLS  =           0.0000
      DIVERSION SEGMENTS =           0.0000        DIVERSION SEGMENTS =           0.0000
           GW IRRIGATION =  1106683520.0000             GW IRRIGATION =         600.0000
           SW IRRIGATION =    52967012.0000             SW IRRIGATION =          29.7987
        SYSTEM LOSSES GW =           0.0000          SYSTEM LOSSES GW =           0.0000
        SYSTEM LOSSES SW =           0.0000          SYSTEM LOSSES SW =           0.0000

               TOTAL OUT =  1159650560.0000                 TOTAL OUT =         629.7987

                IN - OUT =       -1152.0000                  IN - OUT =      -6.1035E-04

     PERCENT DISCREPANCY =          -0.00         PERCENT DISCREPANCY =          -0.00



1
  VOLUMETRIC BUDGET FOR ENTIRE MODEL AT END OF TIME STEP   30, STRESS PERIOD   6
  ------------------------------------------------------------------------------

     CUMULATIVE VOLUMES      L**3       RATES FOR THIS TIME STEP      L**3/T
     ------------------                 ------------------------

           IN:                                      IN:
           ---                                      ---
             STORAGE     =  1178078464.0000               STORAGE     =         599.4916
       CONSTANT HEAD     =           0.0000         CONSTANT HEAD     =           0.0000
     HEAD DEP BOUNDS     =     3810179.0000       HEAD DEP BOUNDS     =           0.2879
      STREAM LEAKAGE     =   155831168.0000        STREAM LEAKAGE     =          12.1175
        UZF RECHARGE     =       73223.9531          UZF RECHARGE     =           0.0000
               GW ET     =           0.0000                 GW ET     =           0.0000
     SURFACE LEAKAGE     =           0.0000       SURFACE LEAKAGE     =           0.0000
           AG WELLS      =           0.0000             AG WELLS      =           0.0000

                TOTAL IN =  1337793024.0000                  TOTAL IN =         611.8971

          OUT:                                     OUT:
          ----                                     ----
             STORAGE     =    91306160.0000               STORAGE     =           0.6699
       CONSTANT HEAD     =           0.0000         CONSTANT HEAD     =           0.0000
     HEAD DEP BOUNDS     =     3818037.7500       HEAD DEP BOUNDS     =           0.2882
      STREAM LEAKAGE     =   135988720.0000        STREAM LEAKAGE     =          10.9387
        UZF RECHARGE     =           0.0000          UZF RECHARGE     =           0.0000
               GW ET     =           0.0000                 GW ET     =           0.0000
     SURFACE LEAKAGE     =           0.0000       SURFACE LEAKAGE     =           0.0000
           AG WELLS      =  1106683520.0000             AG WELLS      =         600.0000

               TOTAL OUT =  1337796480.0000                 TOTAL OUT =         611.8969

                IN - OUT =       -3456.0000                  IN - OUT =       2.4414E-04

     PERCENT DISCREPANCY =          -0.00         PERCENT DISCREPANCY =           0.00






         TIME SUMMARY AT END OF TIME STEP   30 IN STRESS PERIOD    6
                    SECONDS     MINUTES      HOURS       DAYS        YEARS
                    -----------------------------------------------------------
   TIME STEP LENGTH  87667.      1461.1      24.352      1.0147     2.77799E-03
 STRESS PERIOD TIME 2.63000E+06  43833.      730.56      30.440     8.33397E-02
         TOTAL TIME 1.32364E+07 2.20607E+05  3676.8      153.20     0.41944    
1
1
                            STRESS PERIOD NO.    7, LENGTH =   2630000.    
                            -----------------------------------------------

                              NUMBER OF TIME STEPS =    30

                               MULTIPLIER FOR DELT =     1.000

                            INITIAL TIME STEP SIZE =   87666.66    

 REUSING NON-PARAMETER GHB CELLS FROM LAST STRESS PERIOD

      2 GHB CELLS

 REUSING STREAM SEGMENT DATA FROM LAST STRESS PERIOD



            AREAL INFILTRATION RATE
 READING ON UNIT   19 WITH FORMAT: (FREE)              

            1           2           3           4           5           6           7           8           9          10
 ........................................................................................................................
   1   1.0000E-10  2.0000E-10   0.000       0.000       0.000       0.000       0.000       0.000       0.000       0.000    
   2   2.0000E-10  1.0000E-10  2.0000E-10   0.000       0.000      8.0000E-10  8.0000E-10  5.0000E-10   0.000       0.000    
   3    0.000      5.0000E-10  1.0000E-10  1.0000E-10  8.0000E-10  8.0000E-10  5.0000E-10  5.0000E-10   0.000       0.000    
   4   8.0000E-10  5.0000E-10  1.0000E-10  1.0000E-10  1.0000E-10  1.0000E-10  1.0000E-10  1.0000E-10  2.0000E-10   0.000    
   5   8.0000E-10  5.0000E-10  1.0000E-10  1.0000E-10  1.0000E-10  1.0000E-10  1.0000E-10  1.0000E-10  1.0000E-10  1.0000E-10
   6   8.0000E-10  5.0000E-10  5.0000E-10  2.0000E-10  2.0000E-10  1.0000E-10  1.0000E-10  1.0000E-10  1.0000E-10  5.0000E-10
   7   8.0000E-10  5.0000E-10  5.0000E-10  2.0000E-10  2.0000E-10  1.0000E-10  1.0000E-10  2.0000E-10  2.0000E-10   0.000    
   8    0.000      5.0000E-10  5.0000E-10  2.0000E-10  2.0000E-10  1.0000E-10  1.0000E-10  2.0000E-10  5.0000E-10   0.000    
   9    0.000      5.0000E-10  5.0000E-10  2.0000E-10  2.0000E-10  1.0000E-10  1.0000E-10  2.0000E-10  5.0000E-10   0.000    
  10    0.000      5.0000E-10  5.0000E-10  2.0000E-10  2.0000E-10  1.0000E-10  1.0000E-10  2.0000E-10  5.0000E-10  8.0000E-10
  11    0.000      1.0000E-10  1.0000E-10  1.0000E-10  1.0000E-10  1.0000E-10  1.0000E-10  2.0000E-10  5.0000E-10   0.000    
  12   1.0000E-10  1.0000E-10  1.0000E-10  1.0000E-10  1.0000E-10  1.0000E-10  1.0000E-10  1.0000E-10  2.0000E-10   0.000    
  13   1.0000E-10  1.0000E-10  2.0000E-10  2.0000E-10  2.0000E-10  2.0000E-10  2.0000E-10  1.0000E-10  1.0000E-10   0.000    
  14    0.000      2.0000E-10  5.0000E-10  5.0000E-10  5.0000E-10  5.0000E-10  5.0000E-10  2.0000E-10  1.0000E-10   0.000    
  15    0.000       0.000      8.0000E-10  8.0000E-10  8.0000E-10  8.0000E-10   0.000       0.000       0.000       0.000    

                  ET RATE =  1.500000E-07

 USING ET EXTINCTION DEPTH FROM PREVIOUS STRESS PERIOD. CURRENT PERIOD IS:       7

 USING EXTINCTION WATER CONTENT FROM PREVIOUS STRESS PERIOD. CURRENT PERIOD IS:       7

 USING AIR ENTRY PRESSURE FROM PREVIOUS STRESS PERIOD. CURRENT PERIOD IS:       7

 USING ROOT PRESSURE HEAD FROM PREVIOUS STRESS PERIOD. CURRENT PERIOD IS:       7

 USING ROOT ACTIVITY FROM PREVIOUS STRESS PERIOD. CURRENT PERIOD IS:       7

 PROCESSING AG STRESS PERIOD DATA

 READING AG STRESS PERIOD DATA

 READING IRRIGATION SEGMENT

 READING IRRIGATION WELL

 READING SUPPLEMENTAL WELL

 END PROCESSING AG STRESS PERIOD DATA OPTIONS
 
 SOLVING FOR HEAD 
                                                   Max.-Head-Change                         Max.-Flux-Residual
  Residual-Control   Outer-Iter.   Inner-Iter.     Column Row Layer    Maximum-Head-Change  Column Row Layer    Maximum-Flux-Residual          L2-NORM 
          0                 1           2             5    8     1       0.6460193258E+00       5    8    1         0.3537244684E+02      0.7981620789E+02
          0                 2           2             4    7     1      -0.1891319906E+01       5    8    1        -0.1035368692E+03      0.2514997307E+03
          0                 3           2             4    7     1       0.1287753295E+00       5    8    1         0.7246563546E+01      0.1763270990E+02
          0                 4           2             4    7     1      -0.5124169895E-02       5    8    1        -0.2963829963E+00      0.7261269996E+00
          0                 5           1             7   13     1       0.7493165782E-04       7   13    1         0.4295620116E-02      0.1046493802E-01

    ------------------------------------------------
       NWT REQUIRED            5 OUTER ITERATIONS 
       AND A TOTAL OF          9 INNER ITERATIONS.
    ------------------------------------------------

 NO OUTPUT CONTROL FOR STRESS PERIOD    7   TIME STEP    1
 
 SOLVING FOR HEAD 
                                                   Max.-Head-Change                         Max.-Flux-Residual
  Residual-Control   Outer-Iter.   Inner-Iter.     Column Row Layer    Maximum-Head-Change  Column Row Layer    Maximum-Flux-Residual          L2-NORM 
          0                 1           2             5    8     1       0.6675493099E+00       5    8    1         0.3654286910E+02      0.8265542619E+02
          0                 2           2             5    8     1      -0.1330430734E+00       5    8    1        -0.7403884306E+01      0.1666438914E+02
          0                 3           2             5    8     1       0.2051030338E-01       5    8    1         0.1166306094E+01      0.2725676859E+01
          0                 4           2             5    8     1      -0.8161251614E-03       5    8    1        -0.4770204876E-01      0.1116156901E+00
          0                 5           1             5    8     1       0.1006317516E-04       5    8    1         0.6045318798E-03      0.1437957129E-02

    ------------------------------------------------
       NWT REQUIRED            5 OUTER ITERATIONS 
       AND A TOTAL OF          9 INNER ITERATIONS.
    ------------------------------------------------

 NO OUTPUT CONTROL FOR STRESS PERIOD    7   TIME STEP    2
 
 SOLVING FOR HEAD 
                                                   Max.-Head-Change                         Max.-Flux-Residual
  Residual-Control   Outer-Iter.   Inner-Iter.     Column Row Layer    Maximum-Head-Change  Column Row Layer    Maximum-Flux-Residual          L2-NORM 
          0                 1           2             5    8     1       0.6358657680E+00       5    8    1         0.3477828104E+02      0.7948524395E+02
          0                 2           2             5    8     1       0.1364818133E+00       5    8    1         0.7547238558E+01      0.1039412020E+02
          0                 3           2             5    8     1       0.7874024731E-01       5    8    1         0.4337138201E+01      0.4366008913E+01
          0                 4           2             5    8     1       0.4542753957E-01       5    8    1         0.2503284227E+01      0.2503370002E+01
          0                 5           2             5    8     1       0.2620835490E-01       5    8    1         0.1444138667E+01      0.1444149039E+01
          0                 6           2             5    8     1       0.1512026353E-01       5    8    1         0.8331677998E+00      0.8331733235E+00
          0                 7           2             5    8     1       0.8723251801E-02       5    8    1         0.4806758162E+00      0.4806790203E+00
          0                 8           1             5    8     1       0.5032654765E-02       5    8    1         0.2773138469E+00      0.2773156939E+00
          0                 9           1             5    8     1       0.2903458926E-02       5    8    1         0.1599891075E+00      0.1599901727E+00
          0                10           1             5    8     1       0.1675074503E-02       5    8    1         0.9230156006E-01      0.9230217441E-01
                                                   Max.-Head-Change                         Max.-Flux-Residual
  Residual-Control   Outer-Iter.   Inner-Iter.     Column Row Layer    Maximum-Head-Change  Column Row Layer    Maximum-Flux-Residual          L2-NORM 
          0                11           1             5    8     1       0.9663901809E-03       5    8    1         0.5325097098E-01      0.5325132531E-01
          0                12           1             5    8     1       0.5575333542E-03       5    8    1         0.3072174942E-01      0.3072195377E-01
          0                13           1             5    8     1       0.3216541651E-03       5    8    1         0.1772410477E-01      0.1772422264E-01
          0                14           1             5    8     1       0.1855698822E-03       5    8    1         0.1022545514E-01      0.1022552313E-01
          0                15           1             5    8     1       0.1070596449E-03       5    8    1         0.5899306663E-02      0.5899345887E-02
          0                16           1             5    8     1       0.6176523529E-04       5    8    1         0.3403449321E-02      0.3403471948E-02

    ------------------------------------------------
       NWT REQUIRED           16 OUTER ITERATIONS 
       AND A TOTAL OF         23 INNER ITERATIONS.
    ------------------------------------------------

 NO OUTPUT CONTROL FOR STRESS PERIOD    7   TIME STEP    3
 
 SOLVING FOR HEAD 
     PET DIFF ERROR     6    4    0.2245443449E-08    0.1500000053E-06
     PET DIFF ERROR     6    5    0.2245436859E-08    0.1500000053E-06
     PET DIFF ERROR     7    4    0.2245443498E-08    0.1500000053E-06
     PET DIFF ERROR     7    5    0.2245436874E-08    0.1500000053E-06
     PET DIFF ERROR     8    4    0.2245436909E-08    0.1500000053E-06
     PET DIFF ERROR     8    5    0.2245443484E-08    0.1500000053E-06
                                                   Max.-Head-Change                         Max.-Flux-Residual
  Residual-Control   Outer-Iter.   Inner-Iter.     Column Row Layer    Maximum-Head-Change  Column Row Layer    Maximum-Flux-Residual          L2-NORM 
          0                 1           2             5    8     1       0.2453994859E+01       5    8    1         0.1349384860E+03      0.1515145747E+03
     PET DIFF ERROR     6    4    0.2245443449E-08    0.1500000053E-06
     PET DIFF ERROR     6    5    0.2245436859E-08    0.1500000053E-06
     PET DIFF ERROR     7    4    0.2245443498E-08    0.1500000053E-06
     PET DIFF ERROR     7    5    0.2245436874E-08    0.1500000053E-06
     PET DIFF ERROR     8    4    0.2245436909E-08    0.1500000053E-06
     PET DIFF ERROR     8    5    0.2245443484E-08    0.1500000053E-06
          0                 2           2             5    8     1       0.1413804037E+01       5    8    1         0.7796614046E+02      0.7826930465E+02
     PET DIFF ERROR     6    4    0.2245443449E-08    0.1500000053E-06
     PET DIFF ERROR     6    5    0.2245436859E-08    0.1500000053E-06
     PET DIFF ERROR     7    4    0.2245443498E-08    0.1500000053E-06
     PET DIFF ERROR     7    5    0.2245436874E-08    0.1500000053E-06
     PET DIFF ERROR     8    4    0.2245436909E-08    0.1500000053E-06
     PET DIFF ERROR     8    5    0.2245443484E-08    0.1500000053E-06
          0                 3           2             5    8     1       0.8143606150E+00       5    8    1         0.4489639945E+02      0.4489919155E+02
     PET DIFF ERROR     6    4    0.2245443449E-08    0.1500000053E-06
     PET DIFF ERROR     6    5    0.2245436859E-08    0.1500000053E-06
     PET DIFF ERROR     7    4    0.2245443498E-08    0.1500000053E-06
     PET DIFF ERROR     7    5    0.2245436874E-08    0.1500000053E-06
     PET DIFF ERROR     8    4    0.2245436909E-08    0.1500000053E-06
     PET DIFF ERROR     8    5    0.2245443484E-08    0.1500000053E-06
          0                 4           2             5    8     1       0.4690489767E+00       5    8    1         0.2586284141E+02      0.2586290594E+02
     PET DIFF ERROR     6    4    0.2245443449E-08    0.1500000053E-06
     PET DIFF ERROR     6    5    0.2245436859E-08    0.1500000053E-06
     PET DIFF ERROR     7    4    0.2245443498E-08    0.1500000053E-06
     PET DIFF ERROR     7    5    0.2245436874E-08    0.1500000053E-06
     PET DIFF ERROR     8    4    0.2245436909E-08    0.1500000053E-06
     PET DIFF ERROR     8    5    0.2245443484E-08    0.1500000053E-06
          0                 5           2             5    8     1       0.2701484139E+00       5    8    1         0.1489668182E+02      0.1489671877E+02
     PET DIFF ERROR     6    4    0.2245443449E-08    0.1500000053E-06
     PET DIFF ERROR     6    5    0.2245436859E-08    0.1500000053E-06
     PET DIFF ERROR     7    4    0.2245443498E-08    0.1500000053E-06
     PET DIFF ERROR     7    5    0.2245436874E-08    0.1500000053E-06
     PET DIFF ERROR     8    4    0.2245436909E-08    0.1500000053E-06
     PET DIFF ERROR     8    5    0.2245443484E-08    0.1500000053E-06
          0                 6           2             5    8     1       0.1555882779E+00       5    8    1         0.8579860578E+01      0.8579881600E+01
     PET DIFF ERROR     6    4    0.2245443449E-08    0.1500000053E-06
     PET DIFF ERROR     6    5    0.2245436859E-08    0.1500000053E-06
     PET DIFF ERROR     7    4    0.2245443498E-08    0.1500000053E-06
     PET DIFF ERROR     7    5    0.2245436874E-08    0.1500000053E-06
     PET DIFF ERROR     8    4    0.2245436909E-08    0.1500000053E-06
     PET DIFF ERROR     8    5    0.2245443484E-08    0.1500000053E-06
          0                 7           2             5    8     1       0.8960777392E-01       5    8    1         0.4941497291E+01      0.4941509317E+01
     PET DIFF ERROR     6    4    0.2245443449E-08    0.1500000053E-06
     PET DIFF ERROR     6    5    0.2245436859E-08    0.1500000053E-06
     PET DIFF ERROR     7    4    0.2245443498E-08    0.1500000053E-06
     PET DIFF ERROR     7    5    0.2245436874E-08    0.1500000053E-06
     PET DIFF ERROR     8    4    0.2245436909E-08    0.1500000053E-06
     PET DIFF ERROR     8    5    0.2245443484E-08    0.1500000053E-06
          0                 8           2             5    8     1       0.5160731412E-01       5    8    1         0.2845965208E+01      0.2845972111E+01
     PET DIFF ERROR     6    4    0.2245443449E-08    0.1500000053E-06
     PET DIFF ERROR     6    5    0.2245436859E-08    0.1500000053E-06
     PET DIFF ERROR     7    4    0.2245443498E-08    0.1500000053E-06
     PET DIFF ERROR     7    5    0.2245436874E-08    0.1500000053E-06
     PET DIFF ERROR     8    4    0.2245436909E-08    0.1500000053E-06
     PET DIFF ERROR     8    5    0.2245443484E-08    0.1500000053E-06
          0                 9           2             5    8     1       0.2972178963E-01       5    8    1         0.1639065973E+01      0.1639069939E+01
     PET DIFF ERROR     6    4    0.2245443449E-08    0.1500000053E-06
     PET DIFF ERROR     6    5    0.2245436859E-08    0.1500000053E-06
     PET DIFF ERROR     7    4    0.2245443498E-08    0.1500000053E-06
     PET DIFF ERROR     7    5    0.2245436874E-08    0.1500000053E-06
     PET DIFF ERROR     8    4    0.2245436909E-08    0.1500000053E-06
     PET DIFF ERROR     8    5    0.2245443484E-08    0.1500000053E-06
          0                10           2             5    8     1       0.1711739129E-01       5    8    1         0.9439758255E+00      0.9439781065E+00
     PET DIFF ERROR     6    4    0.2245443449E-08    0.1500000053E-06
     PET DIFF ERROR     6    5    0.2245436859E-08    0.1500000053E-06
     PET DIFF ERROR     7    4    0.2245443498E-08    0.1500000053E-06
     PET DIFF ERROR     7    5    0.2245436874E-08    0.1500000053E-06
     PET DIFF ERROR     8    4    0.2245436909E-08    0.1500000053E-06
     PET DIFF ERROR     8    5    0.2245443484E-08    0.1500000053E-06
                                                   Max.-Head-Change                         Max.-Flux-Residual
  Residual-Control   Outer-Iter.   Inner-Iter.     Column Row Layer    Maximum-Head-Change  Column Row Layer    Maximum-Flux-Residual          L2-NORM 
          0                11           2             5    8     1       0.9858244396E-02       5    8    1         0.5436556718E+00      0.5436569842E+00
     PET DIFF ERROR     6    4    0.2245443449E-08    0.1500000053E-06
     PET DIFF ERROR     6    5    0.2245436859E-08    0.1500000053E-06
     PET DIFF ERROR     7    4    0.2245443498E-08    0.1500000053E-06
     PET DIFF ERROR     7    5    0.2245436874E-08    0.1500000053E-06
     PET DIFF ERROR     8    4    0.2245436909E-08    0.1500000053E-06
     PET DIFF ERROR     8    5    0.2245443484E-08    0.1500000053E-06
          0                12           1             5    8     1       0.5677553374E-02       5    8    1         0.3131022402E+00      0.3131029954E+00
     PET DIFF ERROR     6    4    0.2245443449E-08    0.1500000053E-06
     PET DIFF ERROR     6    5    0.2245436859E-08    0.1500000053E-06
     PET DIFF ERROR     7    4    0.2245443498E-08    0.1500000053E-06
     PET DIFF ERROR     7    5    0.2245436874E-08    0.1500000053E-06
     PET DIFF ERROR     8    4    0.2245436909E-08    0.1500000053E-06
     PET DIFF ERROR     8    5    0.2245443484E-08    0.1500000053E-06
          0                13           1             5    8     1       0.3269811110E-02       5    8    1         0.1803216890E+00      0.1803221236E+00
     PET DIFF ERROR     6    4    0.2245443449E-08    0.1500000053E-06
     PET DIFF ERROR     6    5    0.2245436859E-08    0.1500000053E-06
     PET DIFF ERROR     7    4    0.2245443498E-08    0.1500000053E-06
     PET DIFF ERROR     7    5    0.2245436874E-08    0.1500000053E-06
     PET DIFF ERROR     8    4    0.2245436909E-08    0.1500000053E-06
     PET DIFF ERROR     8    5    0.2245443484E-08    0.1500000053E-06
          0                14           1             5    8     1       0.1883145974E-02       5    8    1         0.1038507155E+00      0.1038509661E+00
     PET DIFF ERROR     6    4    0.2245443449E-08    0.1500000053E-06
     PET DIFF ERROR     6    5    0.2245436859E-08    0.1500000053E-06
     PET DIFF ERROR     7    4    0.2245443498E-08    0.1500000053E-06
     PET DIFF ERROR     7    5    0.2245436874E-08    0.1500000053E-06
     PET DIFF ERROR     8    4    0.2245436909E-08    0.1500000053E-06
     PET DIFF ERROR     8    5    0.2245443484E-08    0.1500000053E-06
          0                15           1             5    8     1       0.1084539163E-02       5    8    1         0.5980959575E-01      0.5980974036E-01
     PET DIFF ERROR     6    4    0.2245443449E-08    0.1500000053E-06
     PET DIFF ERROR     6    5    0.2245436859E-08    0.1500000053E-06
     PET DIFF ERROR     7    4    0.2245443498E-08    0.1500000053E-06
     PET DIFF ERROR     7    5    0.2245436874E-08    0.1500000053E-06
     PET DIFF ERROR     8    4    0.2245436909E-08    0.1500000053E-06
     PET DIFF ERROR     8    5    0.2245443484E-08    0.1500000053E-06
          0                16           1             5    8     1       0.6246064327E-03       5    8    1         0.3444547301E-01      0.3444555595E-01
     PET DIFF ERROR     6    4    0.2245443449E-08    0.1500000053E-06
     PET DIFF ERROR     6    5    0.2245436859E-08    0.1500000053E-06
     PET DIFF ERROR     7    4    0.2245443498E-08    0.1500000053E-06
     PET DIFF ERROR     7    5    0.2245436874E-08    0.1500000053E-06
     PET DIFF ERROR     8    4    0.2245436909E-08    0.1500000053E-06
     PET DIFF ERROR     8    5    0.2245443484E-08    0.1500000053E-06
          0                17           1             5    8     1       0.3597225333E-03       5    8    1         0.1983779456E-01      0.1983784229E-01
     PET DIFF ERROR     6    4    0.2245443449E-08    0.1500000053E-06
     PET DIFF ERROR     6    5    0.2245436859E-08    0.1500000053E-06
     PET DIFF ERROR     7    4    0.2245443498E-08    0.1500000053E-06
     PET DIFF ERROR     7    5    0.2245436874E-08    0.1500000053E-06
     PET DIFF ERROR     8    4    0.2245436909E-08    0.1500000053E-06
     PET DIFF ERROR     8    5    0.2245443484E-08    0.1500000053E-06
          0                18           1             5    8     1       0.2071709329E-03       5    8    1         0.1142495754E-01      0.1142498869E-01
     PET DIFF ERROR     6    4    0.2245443449E-08    0.1500000053E-06
     PET DIFF ERROR     6    5    0.2245436859E-08    0.1500000053E-06
     PET DIFF ERROR     7    4    0.2245443498E-08    0.1500000053E-06
     PET DIFF ERROR     7    5    0.2245436874E-08    0.1500000053E-06
     PET DIFF ERROR     8    4    0.2245436909E-08    0.1500000053E-06
     PET DIFF ERROR     8    5    0.2245443484E-08    0.1500000053E-06
          0                19           1             5    8     1       0.1193136115E-03       5    8    1         0.6579846829E-02      0.6579867785E-02
     PET DIFF ERROR     6    4    0.2245443449E-08    0.1500000053E-06
     PET DIFF ERROR     6    5    0.2245436859E-08    0.1500000053E-06
     PET DIFF ERROR     7    4    0.2245443498E-08    0.1500000053E-06
     PET DIFF ERROR     7    5    0.2245436874E-08    0.1500000053E-06
     PET DIFF ERROR     8    4    0.2245436909E-08    0.1500000053E-06
     PET DIFF ERROR     8    5    0.2245443484E-08    0.1500000053E-06
          0                20           1             5    8     1       0.6871493792E-04       5    8    1         0.3789456828E-02      0.3789466357E-02

    ------------------------------------------------
       NWT REQUIRED           20 OUTER ITERATIONS 
       AND A TOTAL OF         31 INNER ITERATIONS.
    ------------------------------------------------

 NO OUTPUT CONTROL FOR STRESS PERIOD    7   TIME STEP    4
     PET DIFF ERROR     6    4    0.2245443449E-08    0.1500000053E-06
     PET DIFF ERROR     6    5    0.2245436859E-08    0.1500000053E-06
     PET DIFF ERROR     7    4    0.2245443498E-08    0.1500000053E-06
     PET DIFF ERROR     7    5    0.2245436874E-08    0.1500000053E-06
     PET DIFF ERROR     8    4    0.2245436909E-08    0.1500000053E-06
     PET DIFF ERROR     8    5    0.2245443484E-08    0.1500000053E-06
 
 SOLVING FOR HEAD 
                                                   Max.-Head-Change                         Max.-Flux-Residual
  Residual-Control   Outer-Iter.   Inner-Iter.     Column Row Layer    Maximum-Head-Change  Column Row Layer    Maximum-Flux-Residual          L2-NORM 
          0                 1           2             5    8     1       0.2118704096E+01       5    8    1         0.1162593810E+03      0.1349425328E+03
          0                 2           2             5    8     1       0.1156436266E+01       5    8    1         0.6395187769E+02      0.6543806437E+02
          0                 3           2             5    8     1       0.6844493951E+00       5    8    1         0.3772001081E+02      0.3785841071E+02
          0                 4           2             5    8     1       0.3939334467E+00       5    8    1         0.2173660408E+02      0.2173688950E+02
          0                 5           2             5    8     1       0.2267194787E+00       5    8    1         0.1250971201E+02      0.1250975103E+02
          0                 6           2             5    8     1       0.1304808206E+00       5    8    1         0.7199813887E+01      0.7199831815E+01
          0                 7           2             5    8     1       0.7509306135E-01       5    8    1         0.4143641688E+01      0.4143652112E+01
          0                 8           2             5    8     1       0.4321656340E-01       5    8    1         0.2384718907E+01      0.2384724882E+01
          0                 9           2             5    8     1       0.2487133441E-01       5    8    1         0.1372425212E+01      0.1372428645E+01
          0                10           2             5    8     1       0.1431353970E-01       5    8    1         0.7898382596E+00      0.7898402323E+00
                                                   Max.-Head-Change                         Max.-Flux-Residual
  Residual-Control   Outer-Iter.   Inner-Iter.     Column Row Layer    Maximum-Head-Change  Column Row Layer    Maximum-Flux-Residual          L2-NORM 
          0                11           2             5    8     1       0.8237482221E-02       5    8    1         0.4545550503E+00      0.4545561846E+00
          0                12           1             5    8     1       0.4740690862E-02       5    8    1         0.2615978321E+00      0.2615984844E+00
          0                13           1             5    8     1       0.2728277935E-02       5    8    1         0.1505502254E+00      0.1505506006E+00
          0                14           1             5    8     1       0.1570129549E-02       5    8    1         0.8664199799E-01      0.8664221379E-01
          0                15           1             5    8     1       0.9036126591E-03       5    8    1         0.4986265280E-01      0.4986277693E-01
          0                16           1             5    8     1       0.5200308321E-03       5    8    1         0.2869605714E-01      0.2869612854E-01
          0                17           1             5    8     1       0.2992787361E-03       5    8    1         0.1651463709E-01      0.1651467816E-01
          0                18           1             5    8     1       0.1722354796E-03       5    8    1         0.9504205462E-02      0.9504229090E-02
          0                19           1             5    8     1       0.9912184298E-04       5    8    1         0.5469688374E-02      0.5469701966E-02

    ------------------------------------------------
       NWT REQUIRED           19 OUTER ITERATIONS 
       AND A TOTAL OF         30 INNER ITERATIONS.
    ------------------------------------------------

 OUTPUT CONTROL FOR STRESS PERIOD    7   TIME STEP    5
    PRINT BUDGET
    SAVE BUDGET
 UBDSV1 SAVING "         STORAGE" ON UNIT 102 AT TIME STEP  5, STRESS PERIOD   7
 UBDSV2 SAVING "   CONSTANT HEAD" ON UNIT 102 AT TIME STEP  5, STRESS PERIOD   7
 UBDSV1 SAVING "FLOW RIGHT FACE " ON UNIT 102 AT TIME STEP  5, STRESS PERIOD   7
 UBDSV1 SAVING "FLOW FRONT FACE " ON UNIT 102 AT TIME STEP  5, STRESS PERIOD   7

  HEAD DEP BOUNDS   PERIOD    7   STEP     5
 BOUNDARY      1   LAYER   1   ROW    13   COL     1   RATE   -0.288270    
 BOUNDARY      2   LAYER   1   ROW    14   COL     9   RATE    0.287935    



 STREAM LISTING     PERIOD      7   STEP        5

 LAYER ROW COL. STREAM  RCH.  FLOW INTO     FLOW TO   FLOW OUT OF   OVRLND.     DIRECT     STREAM       STREAM     STREAM     STREAM   STREAMBED  STREAMBED
                SEG.NO.  NO.  STRM. RCH.    AQUIFER    STRM. RCH.    RUNOFF     PRECIP       ET          HEAD       DEPTH      WIDTH   CONDCTNC.   GRADIENT

   1    1    1     1     1    3.1125E+01  2.7165E-01   3.0853E+01  0.000E+00  0.000E+00  0.000E+00  1.09431E+03  1.259E+00  1.417E+01  6.378E-02  1.420E+00
   1    2    2     1     2    3.0853E+01  4.2045E-01   3.0433E+01  0.000E+00  0.000E+00  0.000E+00  1.08931E+03  1.256E+00  1.411E+01  9.879E-02  1.419E+00
   1    3    3     1     3    3.0433E+01  3.5834E-01   3.0075E+01  0.000E+00  0.000E+00  0.000E+00  1.08367E+03  1.252E+00  1.404E+01  8.427E-02  1.417E+00
   1    3    4     1     4    3.0075E+01  3.2976E-01   2.9745E+01  0.000E+00  0.000E+00  0.000E+00  1.07866E+03  1.249E+00  1.398E+01  7.761E-02  1.416E+00
   1    4    5     2     1    2.7745E+01  3.3390E-01   2.7411E+01  0.000E+00  0.000E+00  0.000E+00  1.07321E+03  1.281E+00  1.200E+01  7.800E-02  1.427E+00
   1    5    6     2     2    2.7411E+01  2.5635E-01   2.7155E+01  0.000E+00  0.000E+00  0.000E+00  1.06778E+03  1.273E+00  1.200E+01  6.000E-02  1.424E+00
   1    6    6     2     3    2.7155E+01  2.5592E-01   2.6899E+01  0.000E+00  0.000E+00  0.000E+00  1.06306E+03  1.265E+00  1.200E+01  6.000E-02  1.422E+00
   1    7    6     2     4    2.6899E+01  2.5549E-01   2.6643E+01  0.000E+00  0.000E+00  0.000E+00  1.05833E+03  1.258E+00  1.200E+01  6.000E-02  1.419E+00
   1    8    6     2     5    2.6643E+01  2.5506E-01   2.6388E+01  0.000E+00  0.000E+00  0.000E+00  1.05361E+03  1.251E+00  1.200E+01  6.000E-02  1.417E+00
   1    3    5     3     1    2.0000E+00  2.8252E-01   1.7175E+00  0.000E+00  0.000E+00  0.000E+00  1.07555E+03  1.909E+00  9.636E+00  7.227E-02  1.955E+00
   1    3    6     3     2    1.7175E+00  2.4905E-01   1.4684E+00  0.000E+00  0.000E+00  0.000E+00  1.07264E+03  1.727E+00  8.909E+00  6.682E-02  1.864E+00
   1    3    7     3     3    1.4684E+00  1.9718E-01   1.2712E+00  0.000E+00  0.000E+00  0.000E+00  1.06987E+03  1.555E+00  8.218E+00  5.547E-02  1.777E+00
   1    4    8     3     4    1.2712E+00  2.2567E-01   1.0456E+00  0.000E+00  0.000E+00  0.000E+00  1.06682E+03  1.364E+00  7.455E+00  6.709E-02  1.682E+00
   1    5    8     3     5    1.0456E+00  1.5790E-01   8.8768E-01  0.000E+00  0.000E+00  0.000E+00  1.06362E+03  1.164E+00  6.655E+00  4.991E-02  1.582E+00
   1    6    8     3     6    8.8768E-01  5.5980E-02   8.3170E-01  0.000E+00  0.000E+00  0.000E+00  1.06158E+03  1.036E+00  6.145E+00  1.844E-02  1.518E+00
   1    5   10     4     1    1.0000E+01  9.0919E-02   9.9091E+00  0.000E+00  0.000E+00  0.000E+00  1.07836E+03  6.368E-01  1.000E+01  2.500E-02  1.212E+00
   1    5    9     4     2    9.9091E+00  1.8158E-01   9.7275E+00  0.000E+00  0.000E+00  0.000E+00  1.07154E+03  6.315E-01  1.000E+01  5.000E-02  1.211E+00
   1    6    8     4     3    9.7275E+00  1.2689E-01   9.6006E+00  0.000E+00  0.000E+00  0.000E+00  1.06381E+03  6.256E-01  1.000E+01  3.500E-02  1.209E+00
   1    6    8     5     1    1.0432E+01  2.2686E-01   1.0205E+01  0.000E+00  0.000E+00  0.000E+00  1.05868E+03  6.790E-01  1.542E+01  6.166E-02  1.226E+00
   1    7    7     5     2    1.0205E+01  2.7894E-01   9.9265E+00  0.000E+00  0.000E+00  0.000E+00  1.05417E+03  6.732E-01  1.519E+01  7.594E-02  1.224E+00
   1    8    7     5     3    9.9265E+00  1.9221E-01   9.7343E+00  0.000E+00  0.000E+00  0.000E+00  1.04992E+03  6.676E-01  1.497E+01  5.241E-02  1.223E+00
   1    8    6     5     4    9.7343E+00  1.3577E-01   9.5985E+00  0.000E+00  0.000E+00  0.000E+00  1.04691E+03  6.637E-01  1.482E+01  3.706E-02  1.221E+00
   1    9    6     6     1    9.5985E+00  2.2097E-01   9.3776E+00  0.000E+00  0.000E+00  0.000E+00  1.04341E+03  6.828E-01  1.200E+01  6.000E-02  1.228E+00
   1   10    7     6     2    9.3776E+00  2.2039E-01   9.1572E+00  0.000E+00  0.000E+00  0.000E+00  1.03885E+03  6.732E-01  1.200E+01  6.000E-02  1.224E+00
   1   11    7     6     3    9.1572E+00  2.1981E-01   8.9374E+00  0.000E+00  0.000E+00  0.000E+00  1.03430E+03  6.636E-01  1.200E+01  6.000E-02  1.221E+00
   1   12    7     6     4    8.9374E+00  2.1923E-01   8.7181E+00  0.000E+00  0.000E+00  0.000E+00  1.02974E+03  6.539E-01  1.200E+01  6.000E-02  1.218E+00
   1   13    7     6     5    8.7181E+00 -6.8933E-02   8.7871E+00  0.000E+00  0.000E+00  0.000E+00  1.02656E+03  6.505E-01  1.200E+01  2.400E-01 -9.574E-02
   1   14    9     7     1    1.5000E+02  1.3678E+00   1.4863E+02  0.000E+00  0.000E+00  0.000E+00  1.03987E+03  2.288E+00  5.529E+01  5.593E-01  8.152E-01
   1   13    8     7     2    1.4863E+02  1.9159E+00   1.4672E+02  0.000E+00  0.000E+00  0.000E+00  1.03478E+03  2.279E+00  5.526E+01  6.148E-01  1.039E+00
   1   13    7     7     3    1.4672E+02  1.5870E+00   1.4513E+02  0.000E+00  0.000E+00  0.000E+00  1.02969E+03  2.270E+00  5.521E+01  5.584E-01  9.474E-01
   1   13    6     8     1    1.5392E+02  9.3463E-01   1.5298E+02  0.000E+00  0.000E+00  0.000E+00  1.02472E+03  2.841E+00  4.119E+01  4.198E-01  7.422E-01
   1   13    5     8     2    1.5298E+02  1.9684E-01   1.5278E+02  0.000E+00  0.000E+00  0.000E+00  1.01846E+03  2.837E+00  4.114E+01  4.192E-01  1.565E-01
   1   13    4     8     3    1.5278E+02 -2.4499E+00   1.5523E+02  0.000E+00  0.000E+00  0.000E+00  1.01222E+03  2.845E+00  4.125E+01  4.204E+00 -1.943E-01
   1   13    3     8     4    1.5523E+02 -3.7128E+00   1.5895E+02  0.000E+00  0.000E+00  0.000E+00  1.00599E+03  2.866E+00  4.156E+01  4.235E+00 -2.922E-01
   1   13    2     8     5    1.5895E+02 -2.7187E+00   1.6167E+02  0.000E+00  0.000E+00  0.000E+00  9.99763E+02  2.888E+00  4.187E+01  4.267E+00 -2.124E-01
   1   13    1     8     6    1.6167E+02 -2.0778E+00   1.6374E+02  0.000E+00  0.000E+00  0.000E+00  9.94779E+02  2.904E+00  4.211E+01  2.575E+00 -2.690E-01
   1    8    6     9     1    2.6388E+01  0.0000E+00   2.6388E+01  0.000E+00  0.000E+00  0.000E+00  1.08281E+03  4.056E+00  4.000E+00  0.000E+00  2.352E+00
   1    8    5     9     2    2.6388E+01  0.0000E+00   2.6388E+01  0.000E+00  0.000E+00  0.000E+00  1.08231E+03  4.056E+00  4.000E+00  0.000E+00  2.352E+00



 UBDSV3 SAVING "           GW ET" ON UNIT  61 AT TIME STEP  5, STRESS PERIOD   7
 UBDSV3 SAVING "    UZF RECHARGE" ON UNIT  61 AT TIME STEP  5, STRESS PERIOD   7
 UBDSV3 SAVING " SURFACE LEAKAGE" ON UNIT  61 AT TIME STEP  5, STRESS PERIOD   7
 UBDSV3 SAVING "       HORT+DUNN" ON UNIT  61 AT TIME STEP  5, STRESS PERIOD   7
 UBDSV3 SAVING "  STORAGE CHANGE" ON UNIT  61 AT TIME STEP  5, STRESS PERIOD   7


UNSATURATED ZONE PACKAGE VOLUMETRIC BUDGET FOR  TIME STEP     5 STRESS PERIOD    7
  ------------------------------------------------------------------------------



     CUMULATIVE VOLUMES      L**3       RATES FOR THIS TIME STEP      L**3/T
     ------------------                 ------------------------

           IN:                                      IN:
           ---                                      ---
        INFILTRATION =  1233656160.5991          INFILTRATION =          41.5120

          OUT:                                     OUT:
          ----                                     ----
              UZF ET =    50750212.6897                UZF ET =          23.3175
        UZF RECHARGE =    55183600.5000          UZF RECHARGE =         286.5965

            IN - OUT =  1127722347.4094              IN - OUT =        -268.4019

          STORAGE:                                 STORAGE:
          --------                                 --------
      STORAGE CHANGE =  1127944023.9255        STORAGE CHANGE =        -268.4127

 PERCENT DISCREPANCY IS DIFFERENCE BETWEEN IN-OUT MINUS CHANGE IN STORAGE
 DIVIDED BY THE AVERAGE OF IN AND OUT TIMES 100

 PERCENT DISCREPANCY =          -0.00     PERCENT DISCREPANCY =           0.00






 

            AG WELLS      PERIOD    7   STEP   5
 AG WELL      1   LAYER   1   ROW     6   COL     4   RATE    -2.37930    
 AG WELL      2   LAYER   1   ROW     6   COL     5   RATE    -2.37930    
 AG WELL      3   LAYER   1   ROW     7   COL     4   RATE    -2.37930    
 AG WELL      4   LAYER   1   ROW     7   COL     5   RATE    -2.37930    
 AG WELL      5   LAYER   1   ROW     8   COL     4   RATE    -2.37930    
 AG WELL      6   LAYER   1   ROW     8   COL     5   RATE    -2.37930    
 
 

   DIVERSION SEGMENTS     PERIOD    7   STEP   5
 SEGMENT      9   RATE     26.3882    
 
 

        SW IRRIGATION     PERIOD    7   STEP   5
 SEGMENT      9   ROW     6   COL     4   RATE     4.39812    
 SEGMENT      9   ROW     6   COL     5   RATE     4.39812    
 SEGMENT      9   ROW     7   COL     4   RATE     4.39812    
 SEGMENT      9   ROW     7   COL     5   RATE     4.39812    
 SEGMENT      9   ROW     8   COL     4   RATE     4.39812    
 SEGMENT      9   ROW     8   COL     5   RATE     4.39812    
 
 

        GW IRRIGATION     PERIOD    7   STEP   5
 AG WELL      1   ROW     6   COL     4   RATE     2.37930    
 AG WELL      2   ROW     6   COL     5   RATE     2.37930    
 AG WELL      3   ROW     7   COL     4   RATE     2.37930    
 AG WELL      4   ROW     7   COL     5   RATE     2.37930    
 AG WELL      5   ROW     8   COL     4   RATE     2.37930    
 AG WELL      6   ROW     8   COL     5   RATE     2.37930    
 
1
  VOLUMETRIC BUDGET FOR AGRICULTURAL FIELDS AT  END OF TIME STEP    5, STRESS PERIOD   7
  ------------------------------------------------------------------------------

     CUMULATIVE VOLUMES      L**3       RATES FOR THIS TIME STEP      L**3/T
     ------------------                 ------------------------

           IN:                                      IN:
           ---                                      ---
               AG WELLS  =  1162166528.0000                 AG WELLS  =          14.2758
      DIVERSION SEGMENTS =    59906036.0000        DIVERSION SEGMENTS =          26.3882
           GW IRRIGATION =           0.0000             GW IRRIGATION =           0.0000
           SW IRRIGATION =           0.0000             SW IRRIGATION =           0.0000
        SYSTEM LOSSES GW =           0.0000          SYSTEM LOSSES GW =           0.0000
        SYSTEM LOSSES SW =           0.0000          SYSTEM LOSSES SW =           0.0000

                TOTAL IN =  1222072576.0000                  TOTAL IN =          40.6640

          OUT:                                     OUT:
          ----                                     ----
               AG WELLS  =           0.0000                 AG WELLS  =           0.0000
      DIVERSION SEGMENTS =           0.0000        DIVERSION SEGMENTS =           0.0000
           GW IRRIGATION =  1162166528.0000             GW IRRIGATION =          14.2758
           SW IRRIGATION =    59907248.0000             SW IRRIGATION =          26.3887
        SYSTEM LOSSES GW =           0.0000          SYSTEM LOSSES GW =           0.0000
        SYSTEM LOSSES SW =           0.0000          SYSTEM LOSSES SW =           0.0000

               TOTAL OUT =  1222073728.0000                 TOTAL OUT =          40.6645

                IN - OUT =       -1152.0000                  IN - OUT =      -5.2643E-04

     PERCENT DISCREPANCY =          -0.00         PERCENT DISCREPANCY =          -0.00



1
  VOLUMETRIC BUDGET FOR ENTIRE MODEL AT END OF TIME STEP    5, STRESS PERIOD   7
  ------------------------------------------------------------------------------

     CUMULATIVE VOLUMES      L**3       RATES FOR THIS TIME STEP      L**3/T
     ------------------                 ------------------------

           IN:                                      IN:
           ---                                      ---
             STORAGE     =  1281619328.0000               STORAGE     =         128.2827
       CONSTANT HEAD     =           0.0000         CONSTANT HEAD     =           0.0000
     HEAD DEP BOUNDS     =     3936389.7500       HEAD DEP BOUNDS     =           0.2879
      STREAM LEAKAGE     =   161176688.0000        STREAM LEAKAGE     =          12.0209
        UZF RECHARGE     =    55183600.0000          UZF RECHARGE     =         286.5965
               GW ET     =           0.0000                 GW ET     =           0.0000
     SURFACE LEAKAGE     =           0.0000       SURFACE LEAKAGE     =           0.0000
           AG WELLS      =           0.0000             AG WELLS      =           0.0000

                TOTAL IN =  1501916032.0000                  TOTAL IN =         427.1881

          OUT:                                     OUT:
          ----                                     ----
             STORAGE     =   195371200.0000               STORAGE     =         401.5927
       CONSTANT HEAD     =           0.0000         CONSTANT HEAD     =           0.0000
     HEAD DEP BOUNDS     =     3944372.5000       HEAD DEP BOUNDS     =           0.2883
      STREAM LEAKAGE     =   140436512.0000        STREAM LEAKAGE     =          11.0281
        UZF RECHARGE     =           0.0000          UZF RECHARGE     =           0.0000
               GW ET     =           0.0000                 GW ET     =           0.0000
     SURFACE LEAKAGE     =           0.0000       SURFACE LEAKAGE     =           0.0000
           AG WELLS      =  1162166528.0000             AG WELLS      =          14.2758

               TOTAL OUT =  1501918592.0000                 TOTAL OUT =         427.1849

                IN - OUT =       -2560.0000                  IN - OUT =       3.1738E-03

     PERCENT DISCREPANCY =          -0.00         PERCENT DISCREPANCY =           0.00






         TIME SUMMARY AT END OF TIME STEP    5 IN STRESS PERIOD    7
                    SECONDS     MINUTES      HOURS       DAYS        YEARS
                    -----------------------------------------------------------
   TIME STEP LENGTH  87667.      1461.1      24.352      1.0147     2.77799E-03
 STRESS PERIOD TIME 4.38333E+05  7305.6      121.76      5.0733     1.38899E-02
         TOTAL TIME 1.36747E+07 2.27912E+05  3798.5      158.27     0.43333    
1
 
 SOLVING FOR HEAD 
                                                   Max.-Head-Change                         Max.-Flux-Residual
  Residual-Control   Outer-Iter.   Inner-Iter.     Column Row Layer    Maximum-Head-Change  Column Row Layer    Maximum-Flux-Residual          L2-NORM 
          0                 1           2             5    8     1       0.1502193314E+01       5    8    1         0.8155561246E+02      0.1307304892E+03
          0                 2           2             4    8     1       0.7535864180E+00       4    8    1         0.4029521751E+02      0.6410503445E+02
          0                 3           2             4    8     1       0.4484582481E+00       4    8    1         0.2406032283E+02      0.3518100495E+02
          0                 4           2             4    8     1       0.2660849343E+00       4    8    1         0.1431036456E+02      0.1983866716E+02
          0                 5           2             4    8     1       0.1575346450E+00       4    8    1         0.8487486471E+01      0.1137380179E+02
          0                 6           2             4    8     1       0.9311961911E-01       4    8    1         0.5023524655E+01      0.6587382993E+01
          0                 7           2             4    8     1       0.5497919909E-01       4    8    1         0.2968797758E+01      0.3838261346E+01
          0                 8           2             4    8     1       0.3243256926E-01       4    8    1         0.1752544155E+01      0.2244239959E+01
          0                 9           2             4    8     1       0.1912001222E-01       4    8    1         0.1033715260E+01      0.1314840849E+01
          0                10           2             4    8     1       0.1126655567E-01       4    8    1         0.6093544388E+00      0.7712203661E+00
                                                   Max.-Head-Change                         Max.-Flux-Residual
  Residual-Control   Outer-Iter.   Inner-Iter.     Column Row Layer    Maximum-Head-Change  Column Row Layer    Maximum-Flux-Residual          L2-NORM 
          0                11           2             4    8     1       0.6636571658E-02       4    8    1         0.3590418135E+00      0.4526662660E+00
          0                12           2             4    8     1       0.3908279076E-02       4    8    1         0.2114837381E+00      0.2658008497E+00
          0                13           2             4    8     1       0.2301154601E-02       4    8    1         0.1245384605E+00      0.1561164400E+00
          0                14           2             4    8     1       0.1354709553E-02       4    8    1         0.7332506798E-01      0.9171045323E-01
          0                15           2             4    8     1       0.7974488915E-03       4    8    1         0.4316627828E-01      0.5388235174E-01
          0                16           2             4    8     1       0.4693834094E-03       4    8    1         0.2540944766E-01      0.3166065772E-01
          0                17           2             4    8     1       0.2762674204E-03       4    8    1         0.1495600837E-01      0.1860509500E-01
          0                18           2             4    8     1       0.1625980108E-03       4    8    1         0.8802670746E-02      0.1093396951E-01
          0                19           1             4    8     1       0.9569504231E-04       4    8    1         0.5180810875E-02      0.6426206273E-02

    ------------------------------------------------
       NWT REQUIRED           19 OUTER ITERATIONS 
       AND A TOTAL OF         37 INNER ITERATIONS.
    ------------------------------------------------

 NO OUTPUT CONTROL FOR STRESS PERIOD    7   TIME STEP    6
 
 SOLVING FOR HEAD 
                                                   Max.-Head-Change                         Max.-Flux-Residual
  Residual-Control   Outer-Iter.   Inner-Iter.     Column Row Layer    Maximum-Head-Change  Column Row Layer    Maximum-Flux-Residual          L2-NORM 
          0                 1           2             5    7     1       0.2518131489E+01       5    7    1         0.1366065494E+03      0.2317355836E+03
          0                 2           2             4    6     1      -0.1862324681E+01       4    6    1        -0.1025321204E+03      0.1776513932E+03
          0                 3           2             5    8     1      -0.3483625693E+00       5    8    1        -0.1935475221E+02      0.3357191355E+02
          0                 4           2             5    6     1      -0.1719758673E+00       5    6    1        -0.9613778352E+01      0.1532736617E+02
          0                 5           2             5    6     1      -0.1025921704E+00       5    6    1        -0.5737234623E+01      0.9118772096E+01
          0                 6           2             5    6     1      -0.6120543055E-01       5    6    1        -0.3422474063E+01      0.5454731364E+01
          0                 7           2             5    6     1      -0.3651681205E-01       5    6    1        -0.2041791203E+01      0.3262783279E+01
          0                 8           2             5    6     1      -0.2178820996E-01       5    6    1        -0.1218175508E+01      0.1951669053E+01
          0                 9           2             5    6     1      -0.1300094488E-01       5    6    1        -0.7268324929E+00      0.1167416242E+01
          0                10           2             5    6     1      -0.7758039287E-02       5    6    1        -0.4336941097E+00      0.6983069803E+00
                                                   Max.-Head-Change                         Max.-Flux-Residual
  Residual-Control   Outer-Iter.   Inner-Iter.     Column Row Layer    Maximum-Head-Change  Column Row Layer    Maximum-Flux-Residual          L2-NORM 
          0                11           2             5    6     1      -0.4629689275E-02       5    6    1        -0.2587953109E+00      0.4177031554E+00
          0                12           2             5    6     1      -0.2762954355E-02       5    6    1        -0.1544372507E+00      0.2498558763E+00
          0                13           2             5    6     1      -0.1648985379E-02       5    6    1        -0.9216577240E-01      0.1494553953E+00
          0                14           2             5    6     1      -0.9841932784E-03       5    6    1        -0.5500579447E-01      0.8939920632E-01
          0                15           2             5    6     1      -0.5874403515E-03       5    6    1        -0.3282975546E-01      0.5347559306E-01
          0                16           2             5    6     1      -0.3506438820E-03       5    6    1        -0.1959505914E-01      0.3198727923E-01
          0                17           2             5    6     1      -0.2093086647E-03       5    6    1        -0.1169619372E-01      0.1913368488E-01
          0                18           2             5    6     1      -0.1249470369E-03       5    6    1        -0.6981695645E-02      0.1144509617E-01
          0                19           1             5    6     1      -0.7459018503E-04       5    6    1        -0.4167686265E-02      0.6846044031E-02

    ------------------------------------------------
       NWT REQUIRED           19 OUTER ITERATIONS 
       AND A TOTAL OF         37 INNER ITERATIONS.
    ------------------------------------------------

 NO OUTPUT CONTROL FOR STRESS PERIOD    7   TIME STEP    7
 
 SOLVING FOR HEAD 
                                                   Max.-Head-Change                         Max.-Flux-Residual
  Residual-Control   Outer-Iter.   Inner-Iter.     Column Row Layer    Maximum-Head-Change  Column Row Layer    Maximum-Flux-Residual          L2-NORM 
          0                 1           2             5    7     1       0.1312685589E+01       5    7    1         0.7142016879E+02      0.1081670094E+03
          0                 2           2             5    7     1       0.5143767898E+00       5    7    1         0.2819364910E+02      0.3905785255E+02
          0                 3           2             5    7     1       0.2415930009E+00       5    7    1         0.1314658941E+02      0.1800530507E+02
          0                 4           2             5    7     1       0.1077485161E+00       5    7    1         0.5877336542E+01      0.8047310315E+01
          0                 5           2             5    7     1       0.4806298384E-01       5    7    1         0.2620547054E+01      0.3605823164E+01
          0                 6           2             5    7     1       0.2144276489E-01       5    7    1         0.1169025336E+01      0.1616373310E+01
          0                 7           2             5    7     1       0.9567964501E-02       5    7    1         0.5215611355E+00      0.7245796632E+00
          0                 8           2             5    7     1       0.4269973430E-02       5    7    1         0.2327325778E+00      0.3248291131E+00
          0                 9           2             5    7     1       0.1905881109E-02       5    7    1         0.1038663876E+00      0.1456277837E+00
          0                10           2             5    7     1       0.8508042643E-03       5    7    1         0.4636150467E-01      0.6529096295E-01
                                                   Max.-Head-Change                         Max.-Flux-Residual
  Residual-Control   Outer-Iter.   Inner-Iter.     Column Row Layer    Maximum-Head-Change  Column Row Layer    Maximum-Flux-Residual          L2-NORM 
          0                11           2             5    7     1       0.3798612278E-03       5    7    1         0.2069678358E-01      0.2927386964E-01
          0                12           2             5    7     1       0.1696211512E-03       5    7    1         0.9240794521E-02      0.1312575329E-01
          0                13           1             5    7     1       0.7575190941E-04       5    7    1         0.4126436562E-02      0.5885512144E-02

    ------------------------------------------------
       NWT REQUIRED           13 OUTER ITERATIONS 
       AND A TOTAL OF         25 INNER ITERATIONS.
    ------------------------------------------------

 NO OUTPUT CONTROL FOR STRESS PERIOD    7   TIME STEP    8
 
 SOLVING FOR HEAD 
                                                   Max.-Head-Change                         Max.-Flux-Residual
  Residual-Control   Outer-Iter.   Inner-Iter.     Column Row Layer    Maximum-Head-Change  Column Row Layer    Maximum-Flux-Residual          L2-NORM 
          0                 1           2             5    7     1       0.7062708112E+00       5    7    1         0.3806974990E+02      0.7789787826E+02
          0                 2           2             5    7     1       0.3177106440E+00       5    7    1         0.1722362051E+02      0.2938503941E+02
          0                 3           2             5    7     1       0.1427688659E+00       5    7    1         0.7737495570E+01      0.1326214854E+02
          0                 4           2             5    7     1       0.6424499195E-01       5    7    1         0.3477472072E+01      0.6007317064E+01
          0                 5           2             5    7     1       0.2894894066E-01       5    7    1         0.1565272671E+01      0.2726556122E+01
          0                 6           2             5    7     1       0.1306161971E-01       5    7    1         0.7054875496E+00      0.1239503968E+01
          0                 7           2             5    7     1       0.5900855040E-02       5    7    1         0.3183885648E+00      0.5643605984E+00
          0                 8           2             5    7     1       0.2669121995E-02       5    7    1         0.1438716801E+00      0.2573356466E+00
          0                 9           2             5    7     1       0.1208757108E-02       5    7    1         0.6509164981E-01      0.1175003063E+00
          0                10           2             5    7     1       0.5480346967E-03       5    7    1         0.2948416831E-01      0.5371987855E-01
                                                   Max.-Head-Change                         Max.-Flux-Residual
  Residual-Control   Outer-Iter.   Inner-Iter.     Column Row Layer    Maximum-Head-Change  Column Row Layer    Maximum-Flux-Residual          L2-NORM 
          0                11           2             5    7     1       0.2487462470E-03       5    7    1         0.1337049156E-01      0.2458951582E-01
          0                12           2             5    7     1       0.1130226509E-03       5    7    1         0.6069903972E-02      0.1126800118E-01
          0                13           1             5    7     1       0.5140632305E-04       5    7    1         0.2758501533E-02      0.5168804600E-02

    ------------------------------------------------
       NWT REQUIRED           13 OUTER ITERATIONS 
       AND A TOTAL OF         25 INNER ITERATIONS.
    ------------------------------------------------

 NO OUTPUT CONTROL FOR STRESS PERIOD    7   TIME STEP    9
 
 SOLVING FOR HEAD 
     PET DIFF ERROR     6    4    0.2245443449E-08    0.1500000053E-06
     PET DIFF ERROR     6    5    0.2245443498E-08    0.1500000053E-06
     PET DIFF ERROR     7    4    0.2245436874E-08    0.1500000053E-06
     PET DIFF ERROR     7    5    0.2245443498E-08    0.1500000053E-06
     PET DIFF ERROR     8    4    0.2245443435E-08    0.1500000053E-06
     PET DIFF ERROR     8    5    0.2245443449E-08    0.1500000053E-06
                                                   Max.-Head-Change                         Max.-Flux-Residual
  Residual-Control   Outer-Iter.   Inner-Iter.     Column Row Layer    Maximum-Head-Change  Column Row Layer    Maximum-Flux-Residual          L2-NORM 
          0                 1           2             4    6     1       0.8872898225E+00       4    6    1         0.4741413152E+02      0.9360182859E+02
     PET DIFF ERROR     6    4    0.2245443449E-08    0.1500000053E-06
     PET DIFF ERROR     6    5    0.2245443498E-08    0.1500000053E-06
     PET DIFF ERROR     7    4    0.2245436874E-08    0.1500000053E-06
     PET DIFF ERROR     7    5    0.2245443498E-08    0.1500000053E-06
     PET DIFF ERROR     8    4    0.2245443435E-08    0.1500000053E-06
     PET DIFF ERROR     8    5    0.2245443449E-08    0.1500000053E-06
          0                 2           2             4    7     1       0.4131945881E+00       4    7    1         0.2170215180E+02      0.4205500342E+02
     PET DIFF ERROR     6    4    0.2245443449E-08    0.1500000053E-06
     PET DIFF ERROR     6    5    0.2245443498E-08    0.1500000053E-06
     PET DIFF ERROR     7    4    0.2245436874E-08    0.1500000053E-06
     PET DIFF ERROR     7    5    0.2245443498E-08    0.1500000053E-06
     PET DIFF ERROR     8    4    0.2245443435E-08    0.1500000053E-06
     PET DIFF ERROR     8    5    0.2245443449E-08    0.1500000053E-06
          0                 3           2             4    7     1       0.1928112612E+00       4    7    1         0.1013330601E+02      0.1947743697E+02
     PET DIFF ERROR     6    4    0.2245443449E-08    0.1500000053E-06
     PET DIFF ERROR     6    5    0.2245443498E-08    0.1500000053E-06
     PET DIFF ERROR     7    4    0.2245436874E-08    0.1500000053E-06
     PET DIFF ERROR     7    5    0.2245443498E-08    0.1500000053E-06
     PET DIFF ERROR     8    4    0.2245443435E-08    0.1500000053E-06
     PET DIFF ERROR     8    5    0.2245443449E-08    0.1500000053E-06
          0                 4           2             4    7     1       0.8993906373E-01       4    7    1         0.4728063131E+01      0.9024807244E+01
     PET DIFF ERROR     6    4    0.2245443449E-08    0.1500000053E-06
     PET DIFF ERROR     6    5    0.2245443498E-08    0.1500000053E-06
     PET DIFF ERROR     7    4    0.2245436874E-08    0.1500000053E-06
     PET DIFF ERROR     7    5    0.2245443498E-08    0.1500000053E-06
     PET DIFF ERROR     8    4    0.2245443435E-08    0.1500000053E-06
     PET DIFF ERROR     8    5    0.2245443449E-08    0.1500000053E-06
          0                 5           2             4    7     1       0.4193858666E-01       4    7    1         0.2205337997E+01      0.4182512621E+01
     PET DIFF ERROR     6    4    0.2245443449E-08    0.1500000053E-06
     PET DIFF ERROR     6    5    0.2245443498E-08    0.1500000053E-06
     PET DIFF ERROR     7    4    0.2245436874E-08    0.1500000053E-06
     PET DIFF ERROR     7    5    0.2245443498E-08    0.1500000053E-06
     PET DIFF ERROR     8    4    0.2245443435E-08    0.1500000053E-06
     PET DIFF ERROR     8    5    0.2245443449E-08    0.1500000053E-06
          0                 6           2             4    7     1       0.1954965591E-01       4    7    1         0.1028287655E+01      0.1938427960E+01
     PET DIFF ERROR     6    4    0.2245443449E-08    0.1500000053E-06
     PET DIFF ERROR     6    5    0.2245443498E-08    0.1500000053E-06
     PET DIFF ERROR     7    4    0.2245436874E-08    0.1500000053E-06
     PET DIFF ERROR     7    5    0.2245443498E-08    0.1500000053E-06
     PET DIFF ERROR     8    4    0.2245443435E-08    0.1500000053E-06
     PET DIFF ERROR     8    5    0.2245443449E-08    0.1500000053E-06
          0                 7           2             4    7     1       0.9110324727E-02       4    7    1         0.4793093568E+00      0.8984279247E+00
     PET DIFF ERROR     6    4    0.2245443449E-08    0.1500000053E-06
     PET DIFF ERROR     6    5    0.2245443498E-08    0.1500000053E-06
     PET DIFF ERROR     7    4    0.2245436874E-08    0.1500000053E-06
     PET DIFF ERROR     7    5    0.2245443498E-08    0.1500000053E-06
     PET DIFF ERROR     8    4    0.2245443435E-08    0.1500000053E-06
     PET DIFF ERROR     8    5    0.2245443449E-08    0.1500000053E-06
          0                 8           2             4    7     1       0.4244306475E-02       4    7    1         0.2233510570E+00      0.4164232167E+00
     PET DIFF ERROR     6    4    0.2245443449E-08    0.1500000053E-06
     PET DIFF ERROR     6    5    0.2245443498E-08    0.1500000053E-06
     PET DIFF ERROR     7    4    0.2245436874E-08    0.1500000053E-06
     PET DIFF ERROR     7    5    0.2245443498E-08    0.1500000053E-06
     PET DIFF ERROR     8    4    0.2245443435E-08    0.1500000053E-06
     PET DIFF ERROR     8    5    0.2245443449E-08    0.1500000053E-06
          0                 9           2             4    7     1       0.1976813897E-02       4    7    1         0.1040494288E+00      0.1930205424E+00
     PET DIFF ERROR     6    4    0.2245443449E-08    0.1500000053E-06
     PET DIFF ERROR     6    5    0.2245443498E-08    0.1500000053E-06
     PET DIFF ERROR     7    4    0.2245436874E-08    0.1500000053E-06
     PET DIFF ERROR     7    5    0.2245443498E-08    0.1500000053E-06
     PET DIFF ERROR     8    4    0.2245443435E-08    0.1500000053E-06
     PET DIFF ERROR     8    5    0.2245443449E-08    0.1500000053E-06
          0                10           2             4    7     1       0.9204885913E-03       4    7    1         0.4845949813E-01      0.8947211004E-01
     PET DIFF ERROR     6    4    0.2245443449E-08    0.1500000053E-06
     PET DIFF ERROR     6    5    0.2245443498E-08    0.1500000053E-06
     PET DIFF ERROR     7    4    0.2245436874E-08    0.1500000053E-06
     PET DIFF ERROR     7    5    0.2245443498E-08    0.1500000053E-06
     PET DIFF ERROR     8    4    0.2245443435E-08    0.1500000053E-06
     PET DIFF ERROR     8    5    0.2245443449E-08    0.1500000053E-06
                                                   Max.-Head-Change                         Max.-Flux-Residual
  Residual-Control   Outer-Iter.   Inner-Iter.     Column Row Layer    Maximum-Head-Change  Column Row Layer    Maximum-Flux-Residual          L2-NORM 
          0                11           2             4    7     1       0.4285203493E-03       4    7    1         0.2256383771E-01      0.4147497913E-01
     PET DIFF ERROR     6    4    0.2245443449E-08    0.1500000053E-06
     PET DIFF ERROR     6    5    0.2245443498E-08    0.1500000053E-06
     PET DIFF ERROR     7    4    0.2245436874E-08    0.1500000053E-06
     PET DIFF ERROR     7    5    0.2245443498E-08    0.1500000053E-06
     PET DIFF ERROR     8    4    0.2245443435E-08    0.1500000053E-06
     PET DIFF ERROR     8    5    0.2245443449E-08    0.1500000053E-06
          0                12           2             4    7     1       0.1994487107E-03       4    7    1         0.1050385259E-01      0.1922639726E-01
     PET DIFF ERROR     6    4    0.2245443449E-08    0.1500000053E-06
     PET DIFF ERROR     6    5    0.2245443498E-08    0.1500000053E-06
     PET DIFF ERROR     7    4    0.2245436874E-08    0.1500000053E-06
     PET DIFF ERROR     7    5    0.2245443498E-08    0.1500000053E-06
     PET DIFF ERROR     8    4    0.2245443435E-08    0.1500000053E-06
     PET DIFF ERROR     8    5    0.2245443449E-08    0.1500000053E-06
          0                13           1             4    7     1       0.9281189051E-04       4    7    1         0.4888685592E-02      0.8912958519E-02

    ------------------------------------------------
       NWT REQUIRED           13 OUTER ITERATIONS 
       AND A TOTAL OF         25 INNER ITERATIONS.
    ------------------------------------------------

 OUTPUT CONTROL FOR STRESS PERIOD    7   TIME STEP   10
    PRINT BUDGET
    SAVE BUDGET
 UBDSV1 SAVING "         STORAGE" ON UNIT 102 AT TIME STEP 10, STRESS PERIOD   7
 UBDSV2 SAVING "   CONSTANT HEAD" ON UNIT 102 AT TIME STEP 10, STRESS PERIOD   7
 UBDSV1 SAVING "FLOW RIGHT FACE " ON UNIT 102 AT TIME STEP 10, STRESS PERIOD   7
 UBDSV1 SAVING "FLOW FRONT FACE " ON UNIT 102 AT TIME STEP 10, STRESS PERIOD   7

  HEAD DEP BOUNDS   PERIOD    7   STEP    10
 BOUNDARY      1   LAYER   1   ROW    13   COL     1   RATE   -0.288493    
 BOUNDARY      2   LAYER   1   ROW    14   COL     9   RATE    0.287938    



 STREAM LISTING     PERIOD      7   STEP       10

 LAYER ROW COL. STREAM  RCH.  FLOW INTO     FLOW TO   FLOW OUT OF   OVRLND.     DIRECT     STREAM       STREAM     STREAM     STREAM   STREAMBED  STREAMBED
                SEG.NO.  NO.  STRM. RCH.    AQUIFER    STRM. RCH.    RUNOFF     PRECIP       ET          HEAD       DEPTH      WIDTH   CONDCTNC.   GRADIENT

   1    1    1     1     1    3.1125E+01  2.7165E-01   3.0853E+01  0.000E+00  0.000E+00  0.000E+00  1.09431E+03  1.259E+00  1.417E+01  6.378E-02  1.420E+00
   1    2    2     1     2    3.0853E+01  4.2045E-01   3.0433E+01  0.000E+00  0.000E+00  0.000E+00  1.08931E+03  1.256E+00  1.411E+01  9.879E-02  1.419E+00
   1    3    3     1     3    3.0433E+01  3.5834E-01   3.0075E+01  0.000E+00  0.000E+00  0.000E+00  1.08367E+03  1.252E+00  1.404E+01  8.427E-02  1.417E+00
   1    3    4     1     4    3.0075E+01  3.2976E-01   2.9745E+01  0.000E+00  0.000E+00  0.000E+00  1.07866E+03  1.249E+00  1.398E+01  7.761E-02  1.416E+00
   1    4    5     2     1    2.7745E+01  3.3390E-01   2.7411E+01  0.000E+00  0.000E+00  0.000E+00  1.07321E+03  1.281E+00  1.200E+01  7.800E-02  1.427E+00
   1    5    6     2     2    2.7411E+01  2.5635E-01   2.7155E+01  0.000E+00  0.000E+00  0.000E+00  1.06778E+03  1.273E+00  1.200E+01  6.000E-02  1.424E+00
   1    6    6     2     3    2.7155E+01  2.5592E-01   2.6899E+01  0.000E+00  0.000E+00  0.000E+00  1.06306E+03  1.265E+00  1.200E+01  6.000E-02  1.422E+00
   1    7    6     2     4    2.6899E+01  2.5549E-01   2.6643E+01  0.000E+00  0.000E+00  0.000E+00  1.05833E+03  1.258E+00  1.200E+01  6.000E-02  1.419E+00
   1    8    6     2     5    2.6643E+01  2.5506E-01   2.6388E+01  0.000E+00  0.000E+00  0.000E+00  1.05361E+03  1.251E+00  1.200E+01  6.000E-02  1.417E+00
   1    3    5     3     1    2.0000E+00  2.8252E-01   1.7175E+00  0.000E+00  0.000E+00  0.000E+00  1.07555E+03  1.909E+00  9.636E+00  7.227E-02  1.955E+00
   1    3    6     3     2    1.7175E+00  2.4905E-01   1.4684E+00  0.000E+00  0.000E+00  0.000E+00  1.07264E+03  1.727E+00  8.909E+00  6.682E-02  1.864E+00
   1    3    7     3     3    1.4684E+00  1.9718E-01   1.2712E+00  0.000E+00  0.000E+00  0.000E+00  1.06987E+03  1.555E+00  8.218E+00  5.547E-02  1.777E+00
   1    4    8     3     4    1.2712E+00  2.2567E-01   1.0456E+00  0.000E+00  0.000E+00  0.000E+00  1.06682E+03  1.364E+00  7.455E+00  6.709E-02  1.682E+00
   1    5    8     3     5    1.0456E+00  1.5790E-01   8.8768E-01  0.000E+00  0.000E+00  0.000E+00  1.06362E+03  1.164E+00  6.655E+00  4.991E-02  1.582E+00
   1    6    8     3     6    8.8768E-01  5.5980E-02   8.3170E-01  0.000E+00  0.000E+00  0.000E+00  1.06158E+03  1.036E+00  6.145E+00  1.844E-02  1.518E+00
   1    5   10     4     1    1.0000E+01  9.0919E-02   9.9091E+00  0.000E+00  0.000E+00  0.000E+00  1.07836E+03  6.368E-01  1.000E+01  2.500E-02  1.212E+00
   1    5    9     4     2    9.9091E+00  1.8158E-01   9.7275E+00  0.000E+00  0.000E+00  0.000E+00  1.07154E+03  6.315E-01  1.000E+01  5.000E-02  1.211E+00
   1    6    8     4     3    9.7275E+00  1.2689E-01   9.6006E+00  0.000E+00  0.000E+00  0.000E+00  1.06381E+03  6.256E-01  1.000E+01  3.500E-02  1.209E+00
   1    6    8     5     1    1.0432E+01  2.2686E-01   1.0205E+01  0.000E+00  0.000E+00  0.000E+00  1.05868E+03  6.790E-01  1.542E+01  6.166E-02  1.226E+00
   1    7    7     5     2    1.0205E+01  2.7894E-01   9.9265E+00  0.000E+00  0.000E+00  0.000E+00  1.05417E+03  6.732E-01  1.519E+01  7.594E-02  1.224E+00
   1    8    7     5     3    9.9265E+00  1.9221E-01   9.7343E+00  0.000E+00  0.000E+00  0.000E+00  1.04992E+03  6.676E-01  1.497E+01  5.241E-02  1.223E+00
   1    8    6     5     4    9.7343E+00  1.3577E-01   9.5985E+00  0.000E+00  0.000E+00  0.000E+00  1.04691E+03  6.637E-01  1.482E+01  3.706E-02  1.221E+00
   1    9    6     6     1    3.5987E+01  2.7095E-01   3.5716E+01  0.000E+00  0.000E+00  0.000E+00  1.04424E+03  1.516E+00  1.200E+01  6.000E-02  1.505E+00
   1   10    7     6     2    3.5716E+01  2.7054E-01   3.5445E+01  0.000E+00  0.000E+00  0.000E+00  1.03969E+03  1.509E+00  1.200E+01  6.000E-02  1.503E+00
   1   11    7     6     3    3.5445E+01  2.7013E-01   3.5175E+01  0.000E+00  0.000E+00  0.000E+00  1.03514E+03  1.502E+00  1.200E+01  6.000E-02  1.501E+00
   1   12    7     6     4    3.5175E+01  2.6971E-01   3.4905E+01  0.000E+00  0.000E+00  0.000E+00  1.03059E+03  1.495E+00  1.200E+01  6.000E-02  1.498E+00
   1   13    7     6     5    3.4905E+01  1.3271E-02   3.4892E+01  0.000E+00  0.000E+00  0.000E+00  1.02740E+03  1.492E+00  1.200E+01  2.400E-02  1.843E-01
   1   14    9     7     1    1.5000E+02  1.3678E+00   1.4863E+02  0.000E+00  0.000E+00  0.000E+00  1.03987E+03  2.288E+00  5.529E+01  5.593E-01  8.152E-01
   1   13    8     7     2    1.4863E+02  1.9160E+00   1.4672E+02  0.000E+00  0.000E+00  0.000E+00  1.03478E+03  2.279E+00  5.526E+01  6.148E-01  1.039E+00
   1   13    7     7     3    1.4672E+02  1.5865E+00   1.4513E+02  0.000E+00  0.000E+00  0.000E+00  1.02969E+03  2.270E+00  5.521E+01  5.584E-01  9.471E-01
   1   13    6     8     1    1.8002E+02  1.0671E+00   1.7895E+02  0.000E+00  0.000E+00  0.000E+00  1.02489E+03  3.013E+00  4.369E+01  4.452E-01  7.990E-01
   1   13    5     8     2    1.7895E+02  2.8516E-01   1.7867E+02  0.000E+00  0.000E+00  0.000E+00  1.01863E+03  3.009E+00  4.363E+01  4.446E-01  2.138E-01
   1   13    4     8     3    1.7867E+02 -1.9002E+00   1.8057E+02  0.000E+00  0.000E+00  0.000E+00  1.01239E+03  3.014E+00  4.370E+01  4.453E+00 -1.422E-01
   1   13    3     8     4    1.8057E+02 -3.2434E+00   1.8381E+02  0.000E+00  0.000E+00  0.000E+00  1.00615E+03  3.030E+00  4.393E+01  4.477E+00 -2.415E-01
   1   13    2     8     5    1.8381E+02 -2.2093E+00   1.8602E+02  0.000E+00  0.000E+00  0.000E+00  9.99922E+02  3.047E+00  4.418E+01  4.502E+00 -1.636E-01
   1   13    1     8     6    1.8602E+02 -1.7840E+00   1.8781E+02  0.000E+00  0.000E+00  0.000E+00  9.94934E+02  3.059E+00  4.436E+01  2.712E+00 -2.193E-01
   1    8    6     9     1    0.0000E+00  0.0000E+00   0.0000E+00  0.000E+00  0.000E+00  0.000E+00  1.07875E+03  0.000E+00  4.000E+00  0.000E+00  1.000E+00
   1    8    5     9     2    0.0000E+00  0.0000E+00   0.0000E+00  0.000E+00  0.000E+00  0.000E+00  1.07825E+03  0.000E+00  4.000E+00  0.000E+00  1.000E+00



     PET DIFF ERROR     6    4    0.2245443449E-08    0.1500000053E-06
     PET DIFF ERROR     6    5    0.2245443498E-08    0.1500000053E-06
     PET DIFF ERROR     7    4    0.2245436874E-08    0.1500000053E-06
     PET DIFF ERROR     7    5    0.2245443498E-08    0.1500000053E-06
     PET DIFF ERROR     8    4    0.2245443435E-08    0.1500000053E-06
     PET DIFF ERROR     8    5    0.2245443449E-08    0.1500000053E-06
 UBDSV3 SAVING "           GW ET" ON UNIT  61 AT TIME STEP 10, STRESS PERIOD   7
 UBDSV3 SAVING "    UZF RECHARGE" ON UNIT  61 AT TIME STEP 10, STRESS PERIOD   7
 UBDSV3 SAVING " SURFACE LEAKAGE" ON UNIT  61 AT TIME STEP 10, STRESS PERIOD   7
 UBDSV3 SAVING "       HORT+DUNN" ON UNIT  61 AT TIME STEP 10, STRESS PERIOD   7
 UBDSV3 SAVING "  STORAGE CHANGE" ON UNIT  61 AT TIME STEP 10, STRESS PERIOD   7


UNSATURATED ZONE PACKAGE VOLUMETRIC BUDGET FOR  TIME STEP    10 STRESS PERIOD    7
  ------------------------------------------------------------------------------



     CUMULATIVE VOLUMES      L**3       RATES FOR THIS TIME STEP      L**3/T
     ------------------                 ------------------------

           IN:                                      IN:
           ---                                      ---
        INFILTRATION =  1292886108.0781          INFILTRATION =           0.8475

          OUT:                                     OUT:
          ----                                     ----
              UZF ET =    61030349.7941                UZF ET =          23.6543
        UZF RECHARGE =   206276050.8438          UZF RECHARGE =         342.7495

            IN - OUT =  1025579707.4402              IN - OUT =        -365.5563

          STORAGE:                                 STORAGE:
          --------                                 --------
      STORAGE CHANGE =  1025794196.8147        STORAGE CHANGE =        -365.5755

 PERCENT DISCREPANCY IS DIFFERENCE BETWEEN IN-OUT MINUS CHANGE IN STORAGE
 DIVIDED BY THE AVERAGE OF IN AND OUT TIMES 100

 PERCENT DISCREPANCY =          -0.00     PERCENT DISCREPANCY =           0.01






 

            AG WELLS      PERIOD    7   STEP  10
 AG WELL      1   LAYER   1   ROW     6   COL     4   RATE     0.00000    
 AG WELL      2   LAYER   1   ROW     6   COL     5   RATE     0.00000    
 AG WELL      3   LAYER   1   ROW     7   COL     4   RATE     0.00000    
 AG WELL      4   LAYER   1   ROW     7   COL     5   RATE     0.00000    
 AG WELL      5   LAYER   1   ROW     8   COL     4   RATE     0.00000    
 AG WELL      6   LAYER   1   ROW     8   COL     5   RATE     0.00000    
 
 

   DIVERSION SEGMENTS     PERIOD    7   STEP  10
 SEGMENT      9   RATE     0.00000    
 
 

        SW IRRIGATION     PERIOD    7   STEP  10
 SEGMENT      9   ROW     6   COL     4   RATE     0.00000    
 SEGMENT      9   ROW     6   COL     5   RATE     0.00000    
 SEGMENT      9   ROW     7   COL     4   RATE     0.00000    
 SEGMENT      9   ROW     7   COL     5   RATE     0.00000    
 SEGMENT      9   ROW     8   COL     4   RATE     0.00000    
 SEGMENT      9   ROW     8   COL     5   RATE     0.00000    
 
 

        GW IRRIGATION     PERIOD    7   STEP  10
 AG WELL      1   ROW     6   COL     4   RATE     0.00000    
 AG WELL      2   ROW     6   COL     5   RATE     0.00000    
 AG WELL      3   ROW     7   COL     4   RATE     0.00000    
 AG WELL      4   ROW     7   COL     5   RATE     0.00000    
 AG WELL      5   ROW     8   COL     4   RATE     0.00000    
 AG WELL      6   ROW     8   COL     5   RATE     0.00000    
 
1
  VOLUMETRIC BUDGET FOR AGRICULTURAL FIELDS AT  END OF TIME STEP   10, STRESS PERIOD   7
  ------------------------------------------------------------------------------

     CUMULATIVE VOLUMES      L**3       RATES FOR THIS TIME STEP      L**3/T
     ------------------                 ------------------------

           IN:                                      IN:
           ---                                      ---
               AG WELLS  =  1216398208.0000                 AG WELLS  =           0.0000
      DIVERSION SEGMENTS =    64532764.0000        DIVERSION SEGMENTS =           0.0000
           GW IRRIGATION =           0.0000             GW IRRIGATION =           0.0000
           SW IRRIGATION =           0.0000             SW IRRIGATION =           0.0000
        SYSTEM LOSSES GW =           0.0000          SYSTEM LOSSES GW =           0.0000
        SYSTEM LOSSES SW =           0.0000          SYSTEM LOSSES SW =           0.0000

                TOTAL IN =  1280930944.0000                  TOTAL IN =           0.0000

          OUT:                                     OUT:
          ----                                     ----
               AG WELLS  =           0.0000                 AG WELLS  =           0.0000
      DIVERSION SEGMENTS =           0.0000        DIVERSION SEGMENTS =           0.0000
           GW IRRIGATION =  1216398208.0000             GW IRRIGATION =           0.0000
           SW IRRIGATION =    64534072.0000             SW IRRIGATION =           0.0000
        SYSTEM LOSSES GW =           0.0000          SYSTEM LOSSES GW =           0.0000
        SYSTEM LOSSES SW =           0.0000          SYSTEM LOSSES SW =           0.0000

               TOTAL OUT =  1280932224.0000                 TOTAL OUT =           0.0000

                IN - OUT =       -1280.0000                  IN - OUT =           0.0000

     PERCENT DISCREPANCY =          -0.00         PERCENT DISCREPANCY =           0.00



1
  VOLUMETRIC BUDGET FOR ENTIRE MODEL AT END OF TIME STEP   10, STRESS PERIOD   7
  ------------------------------------------------------------------------------

     CUMULATIVE VOLUMES      L**3       RATES FOR THIS TIME STEP      L**3/T
     ------------------                 ------------------------

           IN:                                      IN:
           ---                                      ---
             STORAGE     =  1349502336.0000               STORAGE     =          90.6518
       CONSTANT HEAD     =           0.0000         CONSTANT HEAD     =           0.0000
     HEAD DEP BOUNDS     =     4062602.0000       HEAD DEP BOUNDS     =           0.2879
      STREAM LEAKAGE     =   166560384.0000        STREAM LEAKAGE     =          12.4556
        UZF RECHARGE     =   206276032.0000          UZF RECHARGE     =         342.7495
               GW ET     =           0.0000                 GW ET     =           0.0000
     SURFACE LEAKAGE     =           0.0000       SURFACE LEAKAGE     =           0.0000
           AG WELLS      =           0.0000             AG WELLS      =           0.0000

                TOTAL IN =  1726401280.0000                  TOTAL IN =         446.1448

          OUT:                                     OUT:
          ----                                     ----
             STORAGE     =   361171104.0000               STORAGE     =         436.7095
       CONSTANT HEAD     =           0.0000         CONSTANT HEAD     =           0.0000
     HEAD DEP BOUNDS     =     4070772.5000       HEAD DEP BOUNDS     =           0.2885
      STREAM LEAKAGE     =   144762320.0000        STREAM LEAKAGE     =           9.1370
        UZF RECHARGE     =           0.0000          UZF RECHARGE     =           0.0000
               GW ET     =           0.0000                 GW ET     =           0.0000
     SURFACE LEAKAGE     =           0.0000       SURFACE LEAKAGE     =           0.0000
           AG WELLS      =  1216398208.0000             AG WELLS      =           0.0000

               TOTAL OUT =  1726402432.0000                 TOTAL OUT =         446.1349

                IN - OUT =       -1152.0000                  IN - OUT =       9.8572E-03

     PERCENT DISCREPANCY =          -0.00         PERCENT DISCREPANCY =           0.00






         TIME SUMMARY AT END OF TIME STEP   10 IN STRESS PERIOD    7
                    SECONDS     MINUTES      HOURS       DAYS        YEARS
                    -----------------------------------------------------------
   TIME STEP LENGTH  87667.      1461.1      24.352      1.0147     2.77799E-03
 STRESS PERIOD TIME 8.76667E+05  14611.      243.52      10.147     2.77799E-02
         TOTAL TIME 1.41131E+07 2.35218E+05  3920.3      163.35     0.44722    
1
 
 SOLVING FOR HEAD 
                                                   Max.-Head-Change                         Max.-Flux-Residual
  Residual-Control   Outer-Iter.   Inner-Iter.     Column Row Layer    Maximum-Head-Change  Column Row Layer    Maximum-Flux-Residual          L2-NORM 
          0                 1           2             4    7     1       0.8633785009E+00       4    7    1         0.4542111044E+02      0.8965754573E+02
          0                 2           2             4    7     1       0.3377611088E+00       4    7    1         0.1777777413E+02      0.3248822664E+02
          0                 3           2             4    7     1       0.1765678929E+00       4    7    1         0.9288952662E+01      0.1741425304E+02
          0                 4           2             4    7     1       0.8226600198E-01       4    7    1         0.4328816076E+01      0.8068800821E+01
          0                 5           2             4    7     1       0.3831811798E-01       4    7    1         0.2016779744E+01      0.3739604583E+01
          0                 6           2             4    7     1       0.1784316536E-01       4    7    1         0.9393354679E+00      0.1733220029E+01
          0                 7           2             4    7     1       0.8306759303E-02       4    7    1         0.4373897296E+00      0.8033419639E+00
          0                 8           2             4    7     1       0.3866257072E-02       4    7    1         0.2036149193E+00      0.3723601155E+00
          0                 9           2             4    7     1       0.1799102844E-02       4    7    1         0.9476570565E-01      0.1725999972E+00
          0                10           2             4    7     1       0.8370158275E-03       4    7    1         0.4409609257E-01      0.8000777010E-01
                                                   Max.-Head-Change                         Max.-Flux-Residual
  Residual-Control   Outer-Iter.   Inner-Iter.     Column Row Layer    Maximum-Head-Change  Column Row Layer    Maximum-Flux-Residual          L2-NORM 
          0                11           2             4    7     1       0.3893404644E-03       4    7    1         0.2051457396E-01      0.3708824367E-01
          0                12           2             4    7     1       0.1810710183E-03       4    7    1         0.9542102664E-02      0.1719301884E-01
          0                13           1             4    7     1       0.8419703860E-04       4    7    1         0.4437620130E-02      0.7970377941E-02

    ------------------------------------------------
       NWT REQUIRED           13 OUTER ITERATIONS 
       AND A TOTAL OF         25 INNER ITERATIONS.
    ------------------------------------------------

 NO OUTPUT CONTROL FOR STRESS PERIOD    7   TIME STEP   11
 
 SOLVING FOR HEAD 
                                                   Max.-Head-Change                         Max.-Flux-Residual
  Residual-Control   Outer-Iter.   Inner-Iter.     Column Row Layer    Maximum-Head-Change  Column Row Layer    Maximum-Flux-Residual          L2-NORM 
          0                 1           2             4    7     1       0.8416699654E+00       4    7    1         0.4429984749E+02      0.8617469614E+02
          0                 2           2             4    7     1       0.3923624701E+00       4    7    1         0.2063213046E+02      0.3903126147E+02
          0                 3           2             4    7     1       0.1828497842E+00       4    7    1         0.9620010703E+01      0.1807661346E+02
          0                 4           2             4    7     1       0.8518723831E-01       4    7    1         0.4482764549E+01      0.8374272996E+01
          0                 5           2             4    7     1       0.3967671099E-01       4    7    1         0.2088371184E+01      0.3880126933E+01
          0                 6           2             4    7     1       0.1847503477E-01       4    7    1         0.9726315887E+00      0.1797849142E+01
          0                 7           2             4    7     1       0.8600628098E-02       4    7    1         0.4528755398E+00      0.8330582636E+00
          0                 8           2             4    7     1       0.4002918006E-02       4    7    1         0.2108169927E+00      0.3860202746E+00
          0                 9           2             4    7     1       0.1862647628E-02       4    7    1         0.9811491009E-01      0.1788778781E+00
          0                10           2             4    7     1       0.8665580246E-03       4    7    1         0.4565337304E-01      0.8289226000E-01
                                                   Max.-Head-Change                         Max.-Flux-Residual
  Residual-Control   Outer-Iter.   Inner-Iter.     Column Row Layer    Maximum-Head-Change  Column Row Layer    Maximum-Flux-Residual          L2-NORM 
          0                11           2             4    7     1       0.4030719776E-03       4    7    1         0.2123853699E-01      0.3841327220E-01
          0                12           2             4    7     1       0.1874521006E-03       4    7    1         0.9878595727E-02      0.1780155007E-01
          0                13           1             4    7     1       0.8716159867E-04       4    7    1         0.4593983148E-02      0.8249788463E-02

    ------------------------------------------------
       NWT REQUIRED           13 OUTER ITERATIONS 
       AND A TOTAL OF         25 INNER ITERATIONS.
    ------------------------------------------------

 NO OUTPUT CONTROL FOR STRESS PERIOD    7   TIME STEP   12
 
 SOLVING FOR HEAD 
                                                   Max.-Head-Change                         Max.-Flux-Residual
  Residual-Control   Outer-Iter.   Inner-Iter.     Column Row Layer    Maximum-Head-Change  Column Row Layer    Maximum-Flux-Residual          L2-NORM 
          0                 1           2             4    7     1       0.8192986510E+00       4    7    1         0.4314289080E+02      0.8233125864E+02
          0                 2           2             5    8     1      -0.1663404963E+01       5    8    1        -0.9178324367E+02      0.2090571123E+03
          0                 3           2             4    7     1      -0.7075877784E+00       4    7    1        -0.3816775959E+02      0.7721620322E+02
          0                 4           2             4    7     1       0.4818304165E-01       4    7    1         0.2671657741E+01      0.5405227738E+01
          0                 5           2             4    7     1      -0.1917740835E-02       4    7    1        -0.1093012771E+00      0.2211263806E+00
          0                 6           1             4    7     1       0.2366407005E-04       4    7    1         0.1386233404E-02      0.2813935930E-02

    ------------------------------------------------
       NWT REQUIRED            6 OUTER ITERATIONS 
       AND A TOTAL OF         11 INNER ITERATIONS.
    ------------------------------------------------

 NO OUTPUT CONTROL FOR STRESS PERIOD    7   TIME STEP   13
 
 SOLVING FOR HEAD 
                                                   Max.-Head-Change                         Max.-Flux-Residual
  Residual-Control   Outer-Iter.   Inner-Iter.     Column Row Layer    Maximum-Head-Change  Column Row Layer    Maximum-Flux-Residual          L2-NORM 
          0                 1           2             4    7     1       0.4470741543E+00       4    7    1         0.2367448638E+02      0.4287646849E+02
          0                 2           2             4    7     1       0.1122675990E+00       4    7    1         0.6154646762E+01      0.1209641092E+02
          0                 3           2             4    7     1       0.6306600850E-01       4    7    1         0.3379160112E+01      0.4718128241E+01
          0                 4           2             4    7     1       0.2864659180E-01       4    7    1         0.1539341121E+01      0.2008532474E+01
          0                 5           2             4    7     1       0.1301267903E-01       4    7    1         0.6990704430E+00      0.9125190666E+00
          0                 6           2             4    7     1       0.5911202635E-02       4    7    1         0.3175501788E+00      0.4149510615E+00
          0                 7           2             4    7     1       0.2685343810E-02       4    7    1         0.1442529523E+00      0.1886934654E+00
          0                 8           2             4    7     1       0.1219939836E-02       4    7    1         0.6553169888E-01      0.8580606389E-01
          0                 9           2             4    7     1       0.5542311780E-03       4    7    1         0.2977094063E-01      0.3901938339E-01
          0                10           2             4    7     1       0.2518007900E-03       4    7    1         0.1352532226E-01      0.1774369350E-01
                                                   Max.-Head-Change                         Max.-Flux-Residual
  Residual-Control   Outer-Iter.   Inner-Iter.     Column Row Layer    Maximum-Head-Change  Column Row Layer    Maximum-Flux-Residual          L2-NORM 
          0                11           1             4    7     1       0.1144027335E-03       4    7    1         0.6144919554E-02      0.8068796921E-02
          0                12           1             4    7     1       0.5197906784E-04       4    7    1         0.2791887299E-02      0.3669227233E-02

    ------------------------------------------------
       NWT REQUIRED           12 OUTER ITERATIONS 
       AND A TOTAL OF         22 INNER ITERATIONS.
    ------------------------------------------------

 NO OUTPUT CONTROL FOR STRESS PERIOD    7   TIME STEP   14
 
 SOLVING FOR HEAD 
                                                   Max.-Head-Change                         Max.-Flux-Residual
  Residual-Control   Outer-Iter.   Inner-Iter.     Column Row Layer    Maximum-Head-Change  Column Row Layer    Maximum-Flux-Residual          L2-NORM 
          0                 1           2             4    7     1       0.7975167739E+00       4    7    1         0.4197936806E+02      0.7946247464E+02
          0                 2           2             4    7     1       0.3716076747E+00       4    7    1         0.1954947372E+02      0.3573786257E+02
          0                 3           2             4    7     1       0.1730369356E+00       4    7    1         0.9110281058E+01      0.1645529507E+02
          0                 4           2             4    7     1       0.8052484661E-01       4    7    1         0.4241538554E+01      0.7581069772E+01
          0                 5           2             4    7     1       0.3745243167E-01       4    7    1         0.1973660483E+01      0.3493801745E+01
          0                 6           2             4    7     1       0.1741040969E-01       4    7    1         0.9178694782E+00      0.1610401947E+01
          0                 7           2             4    7     1       0.8089740099E-02       4    7    1         0.4266499842E+00      0.7423947253E+00
          0                 8           2             4    7     1       0.3757272747E-02       4    7    1         0.1982266238E+00      0.3422862104E+00
          0                 9           2             4    7     1       0.1744366974E-02       4    7    1         0.9205926416E-01      0.1578301929E+00
          0                10           2             4    7     1       0.8095487384E-03       4    7    1         0.4273684416E-01      0.7278304406E-01
                                                   Max.-Head-Change                         Max.-Flux-Residual
  Residual-Control   Outer-Iter.   Inner-Iter.     Column Row Layer    Maximum-Head-Change  Column Row Layer    Maximum-Flux-Residual          L2-NORM 
          0                11           2             4    7     1       0.3755778502E-03       4    7    1         0.1983259993E-01      0.3356635320E-01
          0                12           2             4    7     1       0.1741885107E-03       4    7    1         0.9200484993E-02      0.1548129096E-01
          0                13           1             4    7     1       0.8076280250E-04       4    7    1         0.4266838598E-02      0.7140608826E-02

    ------------------------------------------------
       NWT REQUIRED           13 OUTER ITERATIONS 
       AND A TOTAL OF         25 INNER ITERATIONS.
    ------------------------------------------------

 OUTPUT CONTROL FOR STRESS PERIOD    7   TIME STEP   15
    PRINT BUDGET
    SAVE BUDGET
 UBDSV1 SAVING "         STORAGE" ON UNIT 102 AT TIME STEP 15, STRESS PERIOD   7
 UBDSV2 SAVING "   CONSTANT HEAD" ON UNIT 102 AT TIME STEP 15, STRESS PERIOD   7
 UBDSV1 SAVING "FLOW RIGHT FACE " ON UNIT 102 AT TIME STEP 15, STRESS PERIOD   7
 UBDSV1 SAVING "FLOW FRONT FACE " ON UNIT 102 AT TIME STEP 15, STRESS PERIOD   7

  HEAD DEP BOUNDS   PERIOD    7   STEP    15
 BOUNDARY      1   LAYER   1   ROW    13   COL     1   RATE   -0.288495    
 BOUNDARY      2   LAYER   1   ROW    14   COL     9   RATE    0.287941    



 STREAM LISTING     PERIOD      7   STEP       15

 LAYER ROW COL. STREAM  RCH.  FLOW INTO     FLOW TO   FLOW OUT OF   OVRLND.     DIRECT     STREAM       STREAM     STREAM     STREAM   STREAMBED  STREAMBED
                SEG.NO.  NO.  STRM. RCH.    AQUIFER    STRM. RCH.    RUNOFF     PRECIP       ET          HEAD       DEPTH      WIDTH   CONDCTNC.   GRADIENT

   1    1    1     1     1    3.1125E+01  2.7165E-01   3.0853E+01  0.000E+00  0.000E+00  0.000E+00  1.09431E+03  1.259E+00  1.417E+01  6.378E-02  1.420E+00
   1    2    2     1     2    3.0853E+01  4.2045E-01   3.0433E+01  0.000E+00  0.000E+00  0.000E+00  1.08931E+03  1.256E+00  1.411E+01  9.879E-02  1.419E+00
   1    3    3     1     3    3.0433E+01  3.5834E-01   3.0075E+01  0.000E+00  0.000E+00  0.000E+00  1.08367E+03  1.252E+00  1.404E+01  8.427E-02  1.417E+00
   1    3    4     1     4    3.0075E+01  3.2976E-01   2.9745E+01  0.000E+00  0.000E+00  0.000E+00  1.07866E+03  1.249E+00  1.398E+01  7.761E-02  1.416E+00
   1    4    5     2     1    2.7745E+01  3.3390E-01   2.7411E+01  0.000E+00  0.000E+00  0.000E+00  1.07321E+03  1.281E+00  1.200E+01  7.800E-02  1.427E+00
   1    5    6     2     2    2.7411E+01  2.5635E-01   2.7155E+01  0.000E+00  0.000E+00  0.000E+00  1.06778E+03  1.273E+00  1.200E+01  6.000E-02  1.424E+00
   1    6    6     2     3    2.7155E+01  2.5592E-01   2.6899E+01  0.000E+00  0.000E+00  0.000E+00  1.06306E+03  1.265E+00  1.200E+01  6.000E-02  1.422E+00
   1    7    6     2     4    2.6899E+01  2.5549E-01   2.6643E+01  0.000E+00  0.000E+00  0.000E+00  1.05833E+03  1.258E+00  1.200E+01  6.000E-02  1.419E+00
   1    8    6     2     5    2.6643E+01  2.5506E-01   2.6388E+01  0.000E+00  0.000E+00  0.000E+00  1.05361E+03  1.251E+00  1.200E+01  6.000E-02  1.417E+00
   1    3    5     3     1    2.0000E+00  2.8252E-01   1.7175E+00  0.000E+00  0.000E+00  0.000E+00  1.07555E+03  1.909E+00  9.636E+00  7.227E-02  1.955E+00
   1    3    6     3     2    1.7175E+00  2.4905E-01   1.4684E+00  0.000E+00  0.000E+00  0.000E+00  1.07264E+03  1.727E+00  8.909E+00  6.682E-02  1.864E+00
   1    3    7     3     3    1.4684E+00  1.9718E-01   1.2712E+00  0.000E+00  0.000E+00  0.000E+00  1.06987E+03  1.555E+00  8.218E+00  5.547E-02  1.777E+00
   1    4    8     3     4    1.2712E+00  2.2567E-01   1.0456E+00  0.000E+00  0.000E+00  0.000E+00  1.06682E+03  1.364E+00  7.455E+00  6.709E-02  1.682E+00
   1    5    8     3     5    1.0456E+00  1.5790E-01   8.8768E-01  0.000E+00  0.000E+00  0.000E+00  1.06362E+03  1.164E+00  6.655E+00  4.991E-02  1.582E+00
   1    6    8     3     6    8.8768E-01  5.5980E-02   8.3170E-01  0.000E+00  0.000E+00  0.000E+00  1.06158E+03  1.036E+00  6.145E+00  1.844E-02  1.518E+00
   1    5   10     4     1    1.0000E+01  9.0919E-02   9.9091E+00  0.000E+00  0.000E+00  0.000E+00  1.07836E+03  6.368E-01  1.000E+01  2.500E-02  1.212E+00
   1    5    9     4     2    9.9091E+00  1.8158E-01   9.7275E+00  0.000E+00  0.000E+00  0.000E+00  1.07154E+03  6.315E-01  1.000E+01  5.000E-02  1.211E+00
   1    6    8     4     3    9.7275E+00  1.2689E-01   9.6006E+00  0.000E+00  0.000E+00  0.000E+00  1.06381E+03  6.256E-01  1.000E+01  3.500E-02  1.209E+00
   1    6    8     5     1    1.0432E+01  2.2686E-01   1.0205E+01  0.000E+00  0.000E+00  0.000E+00  1.05868E+03  6.790E-01  1.542E+01  6.166E-02  1.226E+00
   1    7    7     5     2    1.0205E+01  2.7894E-01   9.9265E+00  0.000E+00  0.000E+00  0.000E+00  1.05417E+03  6.732E-01  1.519E+01  7.594E-02  1.224E+00
   1    8    7     5     3    9.9265E+00  1.9221E-01   9.7343E+00  0.000E+00  0.000E+00  0.000E+00  1.04992E+03  6.676E-01  1.497E+01  5.241E-02  1.223E+00
   1    8    6     5     4    9.7343E+00  1.3577E-01   9.5985E+00  0.000E+00  0.000E+00  0.000E+00  1.04691E+03  6.637E-01  1.482E+01  3.706E-02  1.221E+00
   1    9    6     6     1    3.5987E+01  2.7095E-01   3.5716E+01  0.000E+00  0.000E+00  0.000E+00  1.04424E+03  1.516E+00  1.200E+01  6.000E-02  1.505E+00
   1   10    7     6     2    3.5716E+01  2.7054E-01   3.5445E+01  0.000E+00  0.000E+00  0.000E+00  1.03969E+03  1.509E+00  1.200E+01  6.000E-02  1.503E+00
   1   11    7     6     3    3.5445E+01  2.7013E-01   3.5175E+01  0.000E+00  0.000E+00  0.000E+00  1.03514E+03  1.502E+00  1.200E+01  6.000E-02  1.501E+00
   1   12    7     6     4    3.5175E+01  2.6971E-01   3.4905E+01  0.000E+00  0.000E+00  0.000E+00  1.03059E+03  1.495E+00  1.200E+01  6.000E-02  1.498E+00
   1   13    7     6     5    3.4905E+01  1.3285E-02   3.4892E+01  0.000E+00  0.000E+00  0.000E+00  1.02740E+03  1.492E+00  1.200E+01  2.400E-02  1.845E-01
   1   14    9     7     1    1.5000E+02  1.3679E+00   1.4863E+02  0.000E+00  0.000E+00  0.000E+00  1.03987E+03  2.288E+00  5.529E+01  5.593E-01  8.152E-01
   1   13    8     7     2    1.4863E+02  1.9161E+00   1.4672E+02  0.000E+00  0.000E+00  0.000E+00  1.03478E+03  2.279E+00  5.526E+01  6.148E-01  1.039E+00
   1   13    7     7     3    1.4672E+02  1.5868E+00   1.4513E+02  0.000E+00  0.000E+00  0.000E+00  1.02969E+03  2.270E+00  5.521E+01  5.584E-01  9.472E-01
   1   13    6     8     1    1.8002E+02  1.0676E+00   1.7895E+02  0.000E+00  0.000E+00  0.000E+00  1.02489E+03  3.013E+00  4.369E+01  4.452E-01  7.993E-01
   1   13    5     8     2    1.7895E+02  2.8603E-01   1.7867E+02  0.000E+00  0.000E+00  0.000E+00  1.01863E+03  3.009E+00  4.363E+01  4.446E-01  2.145E-01
   1   13    4     8     3    1.7867E+02 -1.8974E+00   1.8057E+02  0.000E+00  0.000E+00  0.000E+00  1.01239E+03  3.014E+00  4.370E+01  4.453E+00 -1.420E-01
   1   13    3     8     4    1.8057E+02 -3.2453E+00   1.8381E+02  0.000E+00  0.000E+00  0.000E+00  1.00615E+03  3.030E+00  4.393E+01  4.477E+00 -2.416E-01
   1   13    2     8     5    1.8381E+02 -2.2121E+00   1.8602E+02  0.000E+00  0.000E+00  0.000E+00  9.99922E+02  3.047E+00  4.418E+01  4.502E+00 -1.638E-01
   1   13    1     8     6    1.8602E+02 -1.7842E+00   1.8781E+02  0.000E+00  0.000E+00  0.000E+00  9.94934E+02  3.059E+00  4.436E+01  2.712E+00 -2.193E-01
   1    8    6     9     1    0.0000E+00  0.0000E+00   0.0000E+00  0.000E+00  0.000E+00  0.000E+00  1.07875E+03  0.000E+00  4.000E+00  0.000E+00  1.000E+00
   1    8    5     9     2    0.0000E+00  0.0000E+00   0.0000E+00  0.000E+00  0.000E+00  0.000E+00  1.07825E+03  0.000E+00  4.000E+00  0.000E+00  1.000E+00



 UBDSV3 SAVING "           GW ET" ON UNIT  61 AT TIME STEP 15, STRESS PERIOD   7
 UBDSV3 SAVING "    UZF RECHARGE" ON UNIT  61 AT TIME STEP 15, STRESS PERIOD   7
 UBDSV3 SAVING " SURFACE LEAKAGE" ON UNIT  61 AT TIME STEP 15, STRESS PERIOD   7
 UBDSV3 SAVING "       HORT+DUNN" ON UNIT  61 AT TIME STEP 15, STRESS PERIOD   7
 UBDSV3 SAVING "  STORAGE CHANGE" ON UNIT  61 AT TIME STEP 15, STRESS PERIOD   7


UNSATURATED ZONE PACKAGE VOLUMETRIC BUDGET FOR  TIME STEP    15 STRESS PERIOD    7
  ------------------------------------------------------------------------------



     CUMULATIVE VOLUMES      L**3       RATES FOR THIS TIME STEP      L**3/T
     ------------------                 ------------------------

           IN:                                      IN:
           ---                                      ---
        INFILTRATION =  1355680980.9323          INFILTRATION =           0.8475

          OUT:                                     OUT:
          ----                                     ----
              UZF ET =    71280959.4298                UZF ET =          23.4936
        UZF RECHARGE =   289862588.3438          UZF RECHARGE =         272.3614

            IN - OUT =   994537433.1588              IN - OUT =        -295.0075

          STORAGE:                                 STORAGE:
          --------                                 --------
      STORAGE CHANGE =   994742753.9416        STORAGE CHANGE =        -295.0276

 PERCENT DISCREPANCY IS DIFFERENCE BETWEEN IN-OUT MINUS CHANGE IN STORAGE
 DIVIDED BY THE AVERAGE OF IN AND OUT TIMES 100

 PERCENT DISCREPANCY =          -0.00     PERCENT DISCREPANCY =           0.01






 

            AG WELLS      PERIOD    7   STEP  15
 AG WELL      1   LAYER   1   ROW     6   COL     4   RATE     0.00000    
 AG WELL      2   LAYER   1   ROW     6   COL     5   RATE     0.00000    
 AG WELL      3   LAYER   1   ROW     7   COL     4   RATE     0.00000    
 AG WELL      4   LAYER   1   ROW     7   COL     5   RATE     0.00000    
 AG WELL      5   LAYER   1   ROW     8   COL     4   RATE     0.00000    
 AG WELL      6   LAYER   1   ROW     8   COL     5   RATE     0.00000    
 
 

   DIVERSION SEGMENTS     PERIOD    7   STEP  15
 SEGMENT      9   RATE     0.00000    
 
 

        SW IRRIGATION     PERIOD    7   STEP  15
 SEGMENT      9   ROW     6   COL     4   RATE     0.00000    
 SEGMENT      9   ROW     6   COL     5   RATE     0.00000    
 SEGMENT      9   ROW     7   COL     4   RATE     0.00000    
 SEGMENT      9   ROW     7   COL     5   RATE     0.00000    
 SEGMENT      9   ROW     8   COL     4   RATE     0.00000    
 SEGMENT      9   ROW     8   COL     5   RATE     0.00000    
 
 

        GW IRRIGATION     PERIOD    7   STEP  15
 AG WELL      1   ROW     6   COL     4   RATE     0.00000    
 AG WELL      2   ROW     6   COL     5   RATE     0.00000    
 AG WELL      3   ROW     7   COL     4   RATE     0.00000    
 AG WELL      4   ROW     7   COL     5   RATE     0.00000    
 AG WELL      5   ROW     8   COL     4   RATE     0.00000    
 AG WELL      6   ROW     8   COL     5   RATE     0.00000    
 
1
  VOLUMETRIC BUDGET FOR AGRICULTURAL FIELDS AT  END OF TIME STEP   15, STRESS PERIOD   7
  ------------------------------------------------------------------------------

     CUMULATIVE VOLUMES      L**3       RATES FOR THIS TIME STEP      L**3/T
     ------------------                 ------------------------

           IN:                                      IN:
           ---                                      ---
               AG WELLS  =  1271881344.0000                 AG WELLS  =           0.0000
      DIVERSION SEGMENTS =    71472864.0000        DIVERSION SEGMENTS =           0.0000
           GW IRRIGATION =           0.0000             GW IRRIGATION =           0.0000
           SW IRRIGATION =           0.0000             SW IRRIGATION =           0.0000
        SYSTEM LOSSES GW =           0.0000          SYSTEM LOSSES GW =           0.0000
        SYSTEM LOSSES SW =           0.0000          SYSTEM LOSSES SW =           0.0000

                TOTAL IN =  1343354240.0000                  TOTAL IN =           0.0000

          OUT:                                     OUT:
          ----                                     ----
               AG WELLS  =           0.0000                 AG WELLS  =           0.0000
      DIVERSION SEGMENTS =           0.0000        DIVERSION SEGMENTS =           0.0000
           GW IRRIGATION =  1271881344.0000             GW IRRIGATION =           0.0000
           SW IRRIGATION =    71474304.0000             SW IRRIGATION =           0.0000
        SYSTEM LOSSES GW =           0.0000          SYSTEM LOSSES GW =           0.0000
        SYSTEM LOSSES SW =           0.0000          SYSTEM LOSSES SW =           0.0000

               TOTAL OUT =  1343355648.0000                 TOTAL OUT =           0.0000

                IN - OUT =       -1408.0000                  IN - OUT =           0.0000

     PERCENT DISCREPANCY =          -0.00         PERCENT DISCREPANCY =           0.00



1
  VOLUMETRIC BUDGET FOR ENTIRE MODEL AT END OF TIME STEP   15, STRESS PERIOD   7
  ------------------------------------------------------------------------------

     CUMULATIVE VOLUMES      L**3       RATES FOR THIS TIME STEP      L**3/T
     ------------------                 ------------------------

           IN:                                      IN:
           ---                                      ---
             STORAGE     =  1430354560.0000               STORAGE     =          77.4475
       CONSTANT HEAD     =           0.0000         CONSTANT HEAD     =           0.0000
     HEAD DEP BOUNDS     =     4188815.5000       HEAD DEP BOUNDS     =           0.2879
      STREAM LEAKAGE     =   171906192.0000        STREAM LEAKAGE     =          12.4574
        UZF RECHARGE     =   289862592.0000          UZF RECHARGE     =         272.3614
               GW ET     =           0.0000                 GW ET     =           0.0000
     SURFACE LEAKAGE     =           0.0000       SURFACE LEAKAGE     =           0.0000
           AG WELLS      =           0.0000             AG WELLS      =           0.0000

                TOTAL IN =  1896312064.0000                  TOTAL IN =         362.5543

          OUT:                                     OUT:
          ----                                     ----
             STORAGE     =   470935232.0000               STORAGE     =         353.1193
       CONSTANT HEAD     =           0.0000         CONSTANT HEAD     =           0.0000
     HEAD DEP BOUNDS     =     4197211.0000       HEAD DEP BOUNDS     =           0.2885
      STREAM LEAKAGE     =   149297104.0000        STREAM LEAKAGE     =           9.1390
        UZF RECHARGE     =           0.0000          UZF RECHARGE     =           0.0000
               GW ET     =           0.0000                 GW ET     =           0.0000
     SURFACE LEAKAGE     =           0.0000       SURFACE LEAKAGE     =           0.0000
           AG WELLS      =  1271881344.0000             AG WELLS      =           0.0000

               TOTAL OUT =  1896310912.0000                 TOTAL OUT =         362.5468

                IN - OUT =        1152.0000                  IN - OUT =       7.4768E-03

     PERCENT DISCREPANCY =           0.00         PERCENT DISCREPANCY =           0.00






         TIME SUMMARY AT END OF TIME STEP   15 IN STRESS PERIOD    7
                    SECONDS     MINUTES      HOURS       DAYS        YEARS
                    -----------------------------------------------------------
   TIME STEP LENGTH  87667.      1461.1      24.352      1.0147     2.77799E-03
 STRESS PERIOD TIME 1.31500E+06  21917.      365.28      15.220     4.16698E-02
         TOTAL TIME 1.45514E+07 2.42524E+05  4042.1      168.42     0.46111    
1
 
 SOLVING FOR HEAD 
     PET DIFF ERROR     6    4    0.2245436923E-08    0.1500000053E-06
     PET DIFF ERROR     6    5    0.2245436859E-08    0.1500000053E-06
     PET DIFF ERROR     7    4    0.2245436859E-08    0.1500000053E-06
     PET DIFF ERROR     7    5    0.2245443435E-08    0.1500000053E-06
     PET DIFF ERROR     8    4    0.2245436909E-08    0.1500000053E-06
     PET DIFF ERROR     8    5    0.2245436898E-08    0.1500000053E-06
                                                   Max.-Head-Change                         Max.-Flux-Residual
  Residual-Control   Outer-Iter.   Inner-Iter.     Column Row Layer    Maximum-Head-Change  Column Row Layer    Maximum-Flux-Residual          L2-NORM 
          0                 1           2             4    7     1       0.7756329188E+00       4    7    1         0.4085359038E+02      0.7860583428E+02
     PET DIFF ERROR     6    4    0.2245436923E-08    0.1500000053E-06
     PET DIFF ERROR     6    5    0.2245436859E-08    0.1500000053E-06
     PET DIFF ERROR     7    4    0.2245436859E-08    0.1500000053E-06
     PET DIFF ERROR     7    5    0.2245443435E-08    0.1500000053E-06
     PET DIFF ERROR     8    4    0.2245436909E-08    0.1500000053E-06
     PET DIFF ERROR     8    5    0.2245436898E-08    0.1500000053E-06
          0                 2           2             4    7     1       0.3610694191E+00       4    7    1         0.1901039679E+02      0.3522911476E+02
     PET DIFF ERROR     6    4    0.2245436923E-08    0.1500000053E-06
     PET DIFF ERROR     6    5    0.2245436859E-08    0.1500000053E-06
     PET DIFF ERROR     7    4    0.2245436859E-08    0.1500000053E-06
     PET DIFF ERROR     7    5    0.2245443435E-08    0.1500000053E-06
     PET DIFF ERROR     8    4    0.2245436909E-08    0.1500000053E-06
     PET DIFF ERROR     8    5    0.2245436898E-08    0.1500000053E-06
          0                 3           2             4    7     1       0.1679531535E+00       4    7    1         0.8850400904E+01      0.1610677299E+02
     PET DIFF ERROR     6    4    0.2245436923E-08    0.1500000053E-06
     PET DIFF ERROR     6    5    0.2245436859E-08    0.1500000053E-06
     PET DIFF ERROR     7    4    0.2245436859E-08    0.1500000053E-06
     PET DIFF ERROR     7    5    0.2245443435E-08    0.1500000053E-06
     PET DIFF ERROR     8    4    0.2245436909E-08    0.1500000053E-06
     PET DIFF ERROR     8    5    0.2245436898E-08    0.1500000053E-06
          0                 4           2             4    7     1       0.7806388619E-01       4    7    1         0.4116144356E+01      0.7363408321E+01
     PET DIFF ERROR     6    4    0.2245436923E-08    0.1500000053E-06
     PET DIFF ERROR     6    5    0.2245436859E-08    0.1500000053E-06
     PET DIFF ERROR     7    4    0.2245436859E-08    0.1500000053E-06
     PET DIFF ERROR     7    5    0.2245443435E-08    0.1500000053E-06
     PET DIFF ERROR     8    4    0.2245436909E-08    0.1500000053E-06
     PET DIFF ERROR     8    5    0.2245436898E-08    0.1500000053E-06
          0                 5           2             4    7     1       0.3625665630E-01       4    7    1         0.1912919040E+01      0.3367540304E+01
     PET DIFF ERROR     6    4    0.2245436923E-08    0.1500000053E-06
     PET DIFF ERROR     6    5    0.2245436859E-08    0.1500000053E-06
     PET DIFF ERROR     7    4    0.2245436859E-08    0.1500000053E-06
     PET DIFF ERROR     7    5    0.2245443435E-08    0.1500000053E-06
     PET DIFF ERROR     8    4    0.2245436909E-08    0.1500000053E-06
     PET DIFF ERROR     8    5    0.2245436898E-08    0.1500000053E-06
          0                 6           2             4    7     1       0.1682756782E-01       4    7    1         0.8883365429E+00      0.1540789501E+01
     PET DIFF ERROR     6    4    0.2245436923E-08    0.1500000053E-06
     PET DIFF ERROR     6    5    0.2245436859E-08    0.1500000053E-06
     PET DIFF ERROR     7    4    0.2245436859E-08    0.1500000053E-06
     PET DIFF ERROR     7    5    0.2245443435E-08    0.1500000053E-06
     PET DIFF ERROR     8    4    0.2245436909E-08    0.1500000053E-06
     PET DIFF ERROR     8    5    0.2245436898E-08    0.1500000053E-06
          0                 7           2             4    7     1       0.7804969999E-02       4    7    1         0.4122477568E+00      0.7052700712E+00
     PET DIFF ERROR     6    4    0.2245436923E-08    0.1500000053E-06
     PET DIFF ERROR     6    5    0.2245436859E-08    0.1500000053E-06
     PET DIFF ERROR     7    4    0.2245436859E-08    0.1500000053E-06
     PET DIFF ERROR     7    5    0.2245443435E-08    0.1500000053E-06
     PET DIFF ERROR     8    4    0.2245436909E-08    0.1500000053E-06
     PET DIFF ERROR     8    5    0.2245436898E-08    0.1500000053E-06
          0                 8           2             4    7     1       0.3617896762E-02       4    7    1         0.1911871282E+00      0.3229451322E+00
     PET DIFF ERROR     6    4    0.2245436923E-08    0.1500000053E-06
     PET DIFF ERROR     6    5    0.2245436859E-08    0.1500000053E-06
     PET DIFF ERROR     7    4    0.2245436859E-08    0.1500000053E-06
     PET DIFF ERROR     7    5    0.2245443435E-08    0.1500000053E-06
     PET DIFF ERROR     8    4    0.2245436909E-08    0.1500000053E-06
     PET DIFF ERROR     8    5    0.2245436898E-08    0.1500000053E-06
          0                 9           2             4    7     1       0.1676075295E-02       4    7    1         0.8861295610E-01      0.1479264957E+00
     PET DIFF ERROR     6    4    0.2245436923E-08    0.1500000053E-06
     PET DIFF ERROR     6    5    0.2245436859E-08    0.1500000053E-06
     PET DIFF ERROR     7    4    0.2245436859E-08    0.1500000053E-06
     PET DIFF ERROR     7    5    0.2245443435E-08    0.1500000053E-06
     PET DIFF ERROR     8    4    0.2245436909E-08    0.1500000053E-06
     PET DIFF ERROR     8    5    0.2245436898E-08    0.1500000053E-06
          0                10           2             4    7     1       0.7760673770E-03       4    7    1         0.4104792457E-01      0.6777844515E-01
     PET DIFF ERROR     6    4    0.2245436923E-08    0.1500000053E-06
     PET DIFF ERROR     6    5    0.2245436859E-08    0.1500000053E-06
     PET DIFF ERROR     7    4    0.2245436859E-08    0.1500000053E-06
     PET DIFF ERROR     7    5    0.2245443435E-08    0.1500000053E-06
     PET DIFF ERROR     8    4    0.2245436909E-08    0.1500000053E-06
     PET DIFF ERROR     8    5    0.2245436898E-08    0.1500000053E-06
                                                   Max.-Head-Change                         Max.-Flux-Residual
  Residual-Control   Outer-Iter.   Inner-Iter.     Column Row Layer    Maximum-Head-Change  Column Row Layer    Maximum-Flux-Residual          L2-NORM 
          0                11           2             4    7     1       0.3591607377E-03       4    7    1         0.1900450309E-01      0.3106360098E-01
     PET DIFF ERROR     6    4    0.2245436923E-08    0.1500000053E-06
     PET DIFF ERROR     6    5    0.2245436859E-08    0.1500000053E-06
     PET DIFF ERROR     7    4    0.2245436859E-08    0.1500000053E-06
     PET DIFF ERROR     7    5    0.2245443435E-08    0.1500000053E-06
     PET DIFF ERROR     8    4    0.2245436909E-08    0.1500000053E-06
     PET DIFF ERROR     8    5    0.2245436898E-08    0.1500000053E-06
          0                12           2             4    7     1       0.1661405819E-03       4    7    1         0.8794435299E-02      0.1424013805E-01
     PET DIFF ERROR     6    4    0.2245436923E-08    0.1500000053E-06
     PET DIFF ERROR     6    5    0.2245436859E-08    0.1500000053E-06
     PET DIFF ERROR     7    4    0.2245436859E-08    0.1500000053E-06
     PET DIFF ERROR     7    5    0.2245443435E-08    0.1500000053E-06
     PET DIFF ERROR     8    4    0.2245436909E-08    0.1500000053E-06
     PET DIFF ERROR     8    5    0.2245436898E-08    0.1500000053E-06
          0                13           1             4    7     1       0.7681976839E-04       4    7    1         0.4067796941E-02      0.6529317208E-02

    ------------------------------------------------
       NWT REQUIRED           13 OUTER ITERATIONS 
       AND A TOTAL OF         25 INNER ITERATIONS.
    ------------------------------------------------

 NO OUTPUT CONTROL FOR STRESS PERIOD    7   TIME STEP   16
     PET DIFF ERROR     6    4    0.2245436923E-08    0.1500000053E-06
     PET DIFF ERROR     6    5    0.2245436859E-08    0.1500000053E-06
     PET DIFF ERROR     7    4    0.2245436859E-08    0.1500000053E-06
     PET DIFF ERROR     7    5    0.2245443435E-08    0.1500000053E-06
     PET DIFF ERROR     8    4    0.2245436909E-08    0.1500000053E-06
     PET DIFF ERROR     8    5    0.2245436898E-08    0.1500000053E-06
 
 SOLVING FOR HEAD 
                                                   Max.-Head-Change                         Max.-Flux-Residual
  Residual-Control   Outer-Iter.   Inner-Iter.     Column Row Layer    Maximum-Head-Change  Column Row Layer    Maximum-Flux-Residual          L2-NORM 
          0                 1           2             4    7     1       0.7415622686E+00       4    7    1         0.3910289298E+02      0.7329088277E+02
          0                 2           2             4    7     1       0.2760154107E+00       4    7    1         0.1458377665E+02      0.2473499634E+02
          0                 3           2             4    7     1       0.1458128299E+00       4    7    1         0.7695925889E+01      0.1358061383E+02
          0                 4           2             4    7     1       0.6690820031E-01       4    7    1         0.3533287451E+01      0.6158207397E+01
          0                 5           2             4    7     1       0.3054237773E-01       4    7    1         0.1613520447E+01      0.2789617573E+01
          0                 6           2             4    7     1       0.1391617703E-01       4    7    1         0.7354082537E+00      0.1263348821E+01
          0                 7           2             4    7     1       0.6338432210E-02       4    7    1         0.3350548920E+00      0.5722573200E+00
          0                 8           2             4    7     1       0.2886033889E-02       4    7    1         0.1525985853E+00      0.2592603897E+00
          0                 9           2             4    7     1       0.1313682358E-02       4    7    1         0.6947761918E-01      0.1174756046E+00
          0                10           2             4    7     1       0.5978046889E-03       4    7    1         0.3162355871E-01      0.5323741950E-01
                                                   Max.-Head-Change                         Max.-Flux-Residual
  Residual-Control   Outer-Iter.   Inner-Iter.     Column Row Layer    Maximum-Head-Change  Column Row Layer    Maximum-Flux-Residual          L2-NORM 
          0                11           2             4    7     1       0.2719681043E-03       4    7    1         0.1438992153E-01      0.2412883486E-01
          0                12           1             4    7     1       0.1237015638E-03       4    7    1         0.6546324422E-02      0.1093702026E-01
          0                13           1             4    7     1       0.5625214023E-04       4    7    1         0.2977396972E-02      0.4957915687E-02

    ------------------------------------------------
       NWT REQUIRED           13 OUTER ITERATIONS 
       AND A TOTAL OF         24 INNER ITERATIONS.
    ------------------------------------------------

 NO OUTPUT CONTROL FOR STRESS PERIOD    7   TIME STEP   17
 
 SOLVING FOR HEAD 
                                                   Max.-Head-Change                         Max.-Flux-Residual
  Residual-Control   Outer-Iter.   Inner-Iter.     Column Row Layer    Maximum-Head-Change  Column Row Layer    Maximum-Flux-Residual          L2-NORM 
          0                 1           2             4    7     1       0.6875459841E+00       4    7    1         0.3626338751E+02      0.6914639254E+02
          0                 2           2             4    7     1       0.3117814083E+00       4    7    1         0.1643777025E+02      0.3047277148E+02
          0                 3           2             4    7     1       0.1412907534E+00       4    7    1         0.7454706050E+01      0.1364867283E+02
          0                 4           2             4    7     1       0.6399066692E-01       4    7    1         0.3377791440E+01      0.6114983346E+01
          0                 5           2             4    7     1       0.2896535652E-01       4    7    1         0.1529652325E+01      0.2740539779E+01
          0                 6           2             4    7     1       0.1305894689E-01       4    7    1         0.6898554754E+00      0.1227061360E+01
          0                 7           2             4    7     1       0.5856024656E-02       4    7    1         0.3093972925E+00      0.5485831470E+00
          0                 8           2             4    7     1       0.2625576794E-02       4    7    1         0.1387385827E+00      0.2452782147E+00
          0                 9           2             4    7     1       0.1177006439E-02       4    7    1         0.6220224074E-01      0.1096757699E+00
          0                10           2             4    7     1       0.5275578078E-03       4    7    1         0.2788354517E-01      0.4904480201E-01
                                                   Max.-Head-Change                         Max.-Flux-Residual
  Residual-Control   Outer-Iter.   Inner-Iter.     Column Row Layer    Maximum-Head-Change  Column Row Layer    Maximum-Flux-Residual          L2-NORM 
          0                11           2             4    7     1       0.2364301403E-03       4    7    1         0.1249763691E-01      0.2193319216E-01
          0                12           1             4    7     1       0.1059452134E-03       4    7    1         0.5600801512E-02      0.9809203878E-02
          0                13           1             4    7     1       0.4746892544E-04       4    7    1         0.2509683276E-02      0.4387182294E-02

    ------------------------------------------------
       NWT REQUIRED           13 OUTER ITERATIONS 
       AND A TOTAL OF         24 INNER ITERATIONS.
    ------------------------------------------------

 NO OUTPUT CONTROL FOR STRESS PERIOD    7   TIME STEP   18
 
 SOLVING FOR HEAD 
                                                   Max.-Head-Change                         Max.-Flux-Residual
  Residual-Control   Outer-Iter.   Inner-Iter.     Column Row Layer    Maximum-Head-Change  Column Row Layer    Maximum-Flux-Residual          L2-NORM 
          0                 1           2             4    7     1       0.6394801571E+00       4    7    1         0.3372803782E+02      0.6360278024E+02
          0                 2           2             5    7     1      -0.1656407513E+01       5    8    1        -0.9113971118E+02      0.2177778760E+03
          0                 3           2             4    7     1      -0.5188886373E+00       4    7    1        -0.2807505535E+02      0.5539893150E+02
          0                 4           2             4    7     1       0.3533431723E-01       4    7    1         0.1965160180E+01      0.3877973485E+01
          0                 5           2             4    7     1      -0.1406343488E-02       4    7    1        -0.8039225828E-01      0.1586390275E+00
          0                 6           1             4    7     1       0.1735365907E-04       4    7    1         0.1019331174E-02      0.2018020674E-02

    ------------------------------------------------
       NWT REQUIRED            6 OUTER ITERATIONS 
       AND A TOTAL OF         11 INNER ITERATIONS.
    ------------------------------------------------

 NO OUTPUT CONTROL FOR STRESS PERIOD    7   TIME STEP   19
 
 SOLVING FOR HEAD 
                                                   Max.-Head-Change                         Max.-Flux-Residual
  Residual-Control   Outer-Iter.   Inner-Iter.     Column Row Layer    Maximum-Head-Change  Column Row Layer    Maximum-Flux-Residual          L2-NORM 
          0                 1           2             4    7     1       0.3420631781E+00       4    7    1         0.1810707512E+02      0.3308200306E+02
          0                 2           2             4    7     1      -0.1031953330E+00       4    7    1        -0.5560842785E+01      0.1221725925E+02
          0                 3           2             4    7     1       0.1878127569E-01       4    7    1         0.1037282773E+01      0.2437345129E+01
          0                 4           2             4    7     1      -0.7473275463E-03       4    7    1        -0.4242511450E-01      0.9983874771E-01
          0                 5           1             4    7     1       0.9214868098E-05       4    7    1         0.5376566762E-03      0.1290956474E-02

    ------------------------------------------------
       NWT REQUIRED            5 OUTER ITERATIONS 
       AND A TOTAL OF          9 INNER ITERATIONS.
    ------------------------------------------------

 NO OUTPUT CONTROL FOR STRESS PERIOD    7   TIME STEP   20
 
 SOLVING FOR HEAD 
                                                   Max.-Head-Change                         Max.-Flux-Residual
  Residual-Control   Outer-Iter.   Inner-Iter.     Column Row Layer    Maximum-Head-Change  Column Row Layer    Maximum-Flux-Residual          L2-NORM 
          0                 1           2             4    7     1       0.5396434110E+00       4    7    1         0.2852078867E+02      0.5033558055E+02
          0                 2           2             4    7     1       0.2371595637E+00       4    7    1         0.1251120006E+02      0.2174085662E+02
          0                 3           2             4    7     1       0.1043063443E+00       4    7    1         0.5500634351E+01      0.9693144462E+01
          0                 4           2             4    7     1       0.4591070218E-01       4    7    1         0.2419523916E+01      0.4325755679E+01
          0                 5           2             4    7     1       0.2022295767E-01       4    7    1         0.1065119893E+01      0.1931999066E+01
          0                 6           2             4    7     1       0.8914504459E-02       4    7    1         0.4692341863E+00      0.8633931721E+00
          0                 7           2             4    7     1       0.3932471020E-02       4    7    1         0.2068720190E+00      0.3860592440E+00
          0                 8           2             4    7     1       0.1735974668E-02       4    7    1         0.9127005322E-01      0.1727118081E+00
          0                 9           2             4    7     1       0.7668744389E-03       4    7    1         0.4029611247E-01      0.7730268403E-01
          0                10           2             4    7     1       0.3390013641E-03       4    7    1         0.1780326919E-01      0.3461420136E-01
                                                   Max.-Head-Change                         Max.-Flux-Residual
  Residual-Control   Outer-Iter.   Inner-Iter.     Column Row Layer    Maximum-Head-Change  Column Row Layer    Maximum-Flux-Residual          L2-NORM 
          0                11           2             4    7     1       0.1499574404E-03       4    7    1         0.7871026695E-02      0.1550548046E-01
          0                12           1             4    7     1       0.6637689100E-04       4    7    1         0.3482178972E-02      0.6948202088E-02

    ------------------------------------------------
       NWT REQUIRED           12 OUTER ITERATIONS 
       AND A TOTAL OF         23 INNER ITERATIONS.
    ------------------------------------------------

 NO OUTPUT CONTROL FOR STRESS PERIOD    7   TIME STEP   21
 
 SOLVING FOR HEAD 
     PET DIFF ERROR     6    4    0.2245443449E-08    0.1500000053E-06
     PET DIFF ERROR     6    5    0.2245436923E-08    0.1500000053E-06
     PET DIFF ERROR     7    4    0.2245436909E-08    0.1500000053E-06
     PET DIFF ERROR     7    5    0.2245436895E-08    0.1500000053E-06
     PET DIFF ERROR     8    4    0.2245436874E-08    0.1500000053E-06
     PET DIFF ERROR     8    5    0.2245436867E-08    0.1500000053E-06
                                                   Max.-Head-Change                         Max.-Flux-Residual
  Residual-Control   Outer-Iter.   Inner-Iter.     Column Row Layer    Maximum-Head-Change  Column Row Layer    Maximum-Flux-Residual          L2-NORM 
          0                 1           2             4    7     1       0.6392248431E+00       4    7    1         0.3360534857E+02      0.6832639882E+02
     PET DIFF ERROR     6    4    0.2245443449E-08    0.1500000053E-06
     PET DIFF ERROR     6    5    0.2245436923E-08    0.1500000053E-06
     PET DIFF ERROR     7    4    0.2245436909E-08    0.1500000053E-06
     PET DIFF ERROR     7    5    0.2245436895E-08    0.1500000053E-06
     PET DIFF ERROR     8    4    0.2245436874E-08    0.1500000053E-06
     PET DIFF ERROR     8    5    0.2245436867E-08    0.1500000053E-06
          0                 2           2             4    7     1       0.2963829738E+00       4    7    1         0.1557843654E+02      0.3054910734E+02
     PET DIFF ERROR     6    4    0.2245443449E-08    0.1500000053E-06
     PET DIFF ERROR     6    5    0.2245436923E-08    0.1500000053E-06
     PET DIFF ERROR     7    4    0.2245436909E-08    0.1500000053E-06
     PET DIFF ERROR     7    5    0.2245436895E-08    0.1500000053E-06
     PET DIFF ERROR     8    4    0.2245436874E-08    0.1500000053E-06
     PET DIFF ERROR     8    5    0.2245436867E-08    0.1500000053E-06
          0                 3           2             4    7     1       0.1372981541E+00       4    7    1         0.7223387307E+01      0.1384935816E+02
     PET DIFF ERROR     6    4    0.2245443449E-08    0.1500000053E-06
     PET DIFF ERROR     6    5    0.2245436923E-08    0.1500000053E-06
     PET DIFF ERROR     7    4    0.2245436909E-08    0.1500000053E-06
     PET DIFF ERROR     7    5    0.2245436895E-08    0.1500000053E-06
     PET DIFF ERROR     8    4    0.2245436874E-08    0.1500000053E-06
     PET DIFF ERROR     8    5    0.2245436867E-08    0.1500000053E-06
          0                 4           2             4    7     1       0.6354504761E-01       4    7    1         0.3345596009E+01      0.6278658523E+01
     PET DIFF ERROR     6    4    0.2245443449E-08    0.1500000053E-06
     PET DIFF ERROR     6    5    0.2245436923E-08    0.1500000053E-06
     PET DIFF ERROR     7    4    0.2245436909E-08    0.1500000053E-06
     PET DIFF ERROR     7    5    0.2245436895E-08    0.1500000053E-06
     PET DIFF ERROR     8    4    0.2245436874E-08    0.1500000053E-06
     PET DIFF ERROR     8    5    0.2245436867E-08    0.1500000053E-06
          0                 5           2             4    7     1       0.2938493653E-01       4    7    1         0.1548185947E+01      0.2848653868E+01
     PET DIFF ERROR     6    4    0.2245443449E-08    0.1500000053E-06
     PET DIFF ERROR     6    5    0.2245436923E-08    0.1500000053E-06
     PET DIFF ERROR     7    4    0.2245436909E-08    0.1500000053E-06
     PET DIFF ERROR     7    5    0.2245436895E-08    0.1500000053E-06
     PET DIFF ERROR     8    4    0.2245436874E-08    0.1500000053E-06
     PET DIFF ERROR     8    5    0.2245436867E-08    0.1500000053E-06
          0                 6           2             4    7     1       0.1357747026E-01       4    7    1         0.7158149806E+00      0.1293241598E+01
     PET DIFF ERROR     6    4    0.2245443449E-08    0.1500000053E-06
     PET DIFF ERROR     6    5    0.2245436923E-08    0.1500000053E-06
     PET DIFF ERROR     7    4    0.2245436909E-08    0.1500000053E-06
     PET DIFF ERROR     7    5    0.2245436895E-08    0.1500000053E-06
     PET DIFF ERROR     8    4    0.2245436874E-08    0.1500000053E-06
     PET DIFF ERROR     8    5    0.2245436867E-08    0.1500000053E-06
          0                 7           2             4    7     1       0.6268838883E-02       4    7    1         0.3306997654E+00      0.5874417702E+00
     PET DIFF ERROR     6    4    0.2245443449E-08    0.1500000053E-06
     PET DIFF ERROR     6    5    0.2245436923E-08    0.1500000053E-06
     PET DIFF ERROR     7    4    0.2245436909E-08    0.1500000053E-06
     PET DIFF ERROR     7    5    0.2245436895E-08    0.1500000053E-06
     PET DIFF ERROR     8    4    0.2245436874E-08    0.1500000053E-06
     PET DIFF ERROR     8    5    0.2245436867E-08    0.1500000053E-06
          0                 8           2             4    7     1       0.2892350132E-02       4    7    1         0.1526669274E+00      0.2669746715E+00
     PET DIFF ERROR     6    4    0.2245443449E-08    0.1500000053E-06
     PET DIFF ERROR     6    5    0.2245436923E-08    0.1500000053E-06
     PET DIFF ERROR     7    4    0.2245436909E-08    0.1500000053E-06
     PET DIFF ERROR     7    5    0.2245436895E-08    0.1500000053E-06
     PET DIFF ERROR     8    4    0.2245436874E-08    0.1500000053E-06
     PET DIFF ERROR     8    5    0.2245436867E-08    0.1500000053E-06
          0                 9           2             4    7     1       0.1333613337E-02       4    7    1         0.7042959880E-01      0.1213873536E+00
     PET DIFF ERROR     6    4    0.2245443449E-08    0.1500000053E-06
     PET DIFF ERROR     6    5    0.2245436923E-08    0.1500000053E-06
     PET DIFF ERROR     7    4    0.2245436909E-08    0.1500000053E-06
     PET DIFF ERROR     7    5    0.2245436895E-08    0.1500000053E-06
     PET DIFF ERROR     8    4    0.2245436874E-08    0.1500000053E-06
     PET DIFF ERROR     8    5    0.2245436867E-08    0.1500000053E-06
          0                10           2             4    7     1       0.6145294106E-03       4    7    1         0.3247014221E-01      0.5521473714E-01
     PET DIFF ERROR     6    4    0.2245443449E-08    0.1500000053E-06
     PET DIFF ERROR     6    5    0.2245436923E-08    0.1500000053E-06
     PET DIFF ERROR     7    4    0.2245436909E-08    0.1500000053E-06
     PET DIFF ERROR     7    5    0.2245436895E-08    0.1500000053E-06
     PET DIFF ERROR     8    4    0.2245436874E-08    0.1500000053E-06
     PET DIFF ERROR     8    5    0.2245436867E-08    0.1500000053E-06
                                                   Max.-Head-Change                         Max.-Flux-Residual
  Residual-Control   Outer-Iter.   Inner-Iter.     Column Row Layer    Maximum-Head-Change  Column Row Layer    Maximum-Flux-Residual          L2-NORM 
          0                11           2             4    7     1       0.2830128489E-03       4    7    1         0.1496063528E-01      0.2512446008E-01
     PET DIFF ERROR     6    4    0.2245443449E-08    0.1500000053E-06
     PET DIFF ERROR     6    5    0.2245436923E-08    0.1500000053E-06
     PET DIFF ERROR     7    4    0.2245436909E-08    0.1500000053E-06
     PET DIFF ERROR     7    5    0.2245436895E-08    0.1500000053E-06
     PET DIFF ERROR     8    4    0.2245436874E-08    0.1500000053E-06
     PET DIFF ERROR     8    5    0.2245436867E-08    0.1500000053E-06
          0                12           1             4    7     1       0.1302675467E-03       4    7    1         0.6889212697E-02      0.1143621625E-01
     PET DIFF ERROR     6    4    0.2245443449E-08    0.1500000053E-06
     PET DIFF ERROR     6    5    0.2245436923E-08    0.1500000053E-06
     PET DIFF ERROR     7    4    0.2245436909E-08    0.1500000053E-06
     PET DIFF ERROR     7    5    0.2245436895E-08    0.1500000053E-06
     PET DIFF ERROR     8    4    0.2245436874E-08    0.1500000053E-06
     PET DIFF ERROR     8    5    0.2245436867E-08    0.1500000053E-06
          0                13           1             4    7     1       0.5993046807E-04       4    7    1         0.3170724595E-02      0.5207115255E-02

    ------------------------------------------------
       NWT REQUIRED           13 OUTER ITERATIONS 
       AND A TOTAL OF         24 INNER ITERATIONS.
    ------------------------------------------------

 NO OUTPUT CONTROL FOR STRESS PERIOD    7   TIME STEP   22
     PET DIFF ERROR     6    4    0.2245443449E-08    0.1500000053E-06
     PET DIFF ERROR     6    5    0.2245436923E-08    0.1500000053E-06
     PET DIFF ERROR     7    4    0.2245436909E-08    0.1500000053E-06
     PET DIFF ERROR     7    5    0.2245436895E-08    0.1500000053E-06
     PET DIFF ERROR     8    4    0.2245436874E-08    0.1500000053E-06
     PET DIFF ERROR     8    5    0.2245436867E-08    0.1500000053E-06
 
 SOLVING FOR HEAD 
                                                   Max.-Head-Change                         Max.-Flux-Residual
  Residual-Control   Outer-Iter.   Inner-Iter.     Column Row Layer    Maximum-Head-Change  Column Row Layer    Maximum-Flux-Residual          L2-NORM 
          0                 1           2             4    7     1       0.6422508314E+00       4    7    1         0.3382645803E+02      0.6585780121E+02
          0                 2           2             4    7     1       0.2275472054E+00       4    7    1         0.1201179729E+02      0.2122364476E+02
          0                 3           2             4    7     1       0.1223382389E+00       4    7    1         0.6448544328E+01      0.1196175316E+02
          0                 4           2             4    7     1       0.5548117794E-01       4    7    1         0.2925323573E+01      0.5389849440E+01
          0                 5           2             4    7     1       0.2515016756E-01       4    7    1         0.1326568737E+01      0.2426203990E+01
          0                 6           2             4    7     1       0.1139609429E-01       4    7    1         0.6012988972E+00      0.1092320984E+01
          0                 7           2             4    7     1       0.5161846366E-02       4    7    1         0.2724418224E+00      0.4918592967E+00
          0                 8           2             4    7     1       0.2337226149E-02       4    7    1         0.1233937963E+00      0.2215090067E+00
          0                 9           2             4    7     1       0.1057924479E-02       4    7    1         0.5586781712E-01      0.9976900637E-01
          0                10           2             4    7     1       0.4787155473E-03       4    7    1         0.2528659686E-01      0.4494155430E-01
                                                   Max.-Head-Change                         Max.-Flux-Residual
  Residual-Control   Outer-Iter.   Inner-Iter.     Column Row Layer    Maximum-Head-Change  Column Row Layer    Maximum-Flux-Residual          L2-NORM 
          0                11           2             4    7     1       0.2165604390E-03       4    7    1         0.1144168229E-01      0.2024621258E-01
          0                12           1             4    7     1       0.9794187923E-04       4    7    1         0.5175708886E-02      0.9121754789E-02

    ------------------------------------------------
       NWT REQUIRED           12 OUTER ITERATIONS 
       AND A TOTAL OF         23 INNER ITERATIONS.
    ------------------------------------------------

 NO OUTPUT CONTROL FOR STRESS PERIOD    7   TIME STEP   23
 
 SOLVING FOR HEAD 
                                                   Max.-Head-Change                         Max.-Flux-Residual
  Residual-Control   Outer-Iter.   Inner-Iter.     Column Row Layer    Maximum-Head-Change  Column Row Layer    Maximum-Flux-Residual          L2-NORM 
          0                 1           2             4    7     1       0.5953415213E+00       4    7    1         0.3136324643E+02      0.6218284329E+02
          0                 2           2             4    7     1       0.2679711316E+00       4    7    1         0.1411331995E+02      0.2734588320E+02
          0                 3           2             4    7     1       0.1205406245E+00       4    7    1         0.6352977681E+01      0.1216664407E+02
          0                 4           2             4    7     1       0.5419012990E-01       4    7    1         0.2857352353E+01      0.5416545958E+01
          0                 5           2             4    7     1       0.2434832059E-01       4    7    1         0.1284419887E+01      0.2412074729E+01
          0                 6           2             4    7     1       0.1093449471E-01       4    7    1         0.5770499992E+00      0.1074334013E+01
          0                 7           2             4    7     1       0.4908246480E-02       4    7    1         0.2591219088E+00      0.4785862959E+00
          0                 8           2             4    7     1       0.2202254137E-02       4    7    1         0.1163042599E+00      0.2132278014E+00
          0                 9           2             4    7     1       0.9877249598E-03       4    7    1         0.5217990032E-01      0.9501277073E-01
          0                10           2             4    7     1       0.4428381229E-03       4    7    1         0.2340134815E-01      0.4234163479E-01
                                                   Max.-Head-Change                         Max.-Flux-Residual
  Residual-Control   Outer-Iter.   Inner-Iter.     Column Row Layer    Maximum-Head-Change  Column Row Layer    Maximum-Flux-Residual          L2-NORM 
          0                11           2             4    7     1       0.1984751300E-03       4    7    1         0.1049110351E-01      0.1887098498E-01
          0                12           1             4    7     1       0.8892626489E-04       4    7    1         0.4701708277E-02      0.8411190012E-02

    ------------------------------------------------
       NWT REQUIRED           12 OUTER ITERATIONS 
       AND A TOTAL OF         23 INNER ITERATIONS.
    ------------------------------------------------

 NO OUTPUT CONTROL FOR STRESS PERIOD    7   TIME STEP   24
 
 SOLVING FOR HEAD 
                                                   Max.-Head-Change                         Max.-Flux-Residual
  Residual-Control   Outer-Iter.   Inner-Iter.     Column Row Layer    Maximum-Head-Change  Column Row Layer    Maximum-Flux-Residual          L2-NORM 
          0                 1           2             4    7     1       0.5546645167E+00       4    7    1         0.2917999238E+02      0.5848765999E+02
          0                 2           2             5    8     1      -0.1655607093E+01       5    8    1        -0.9120768114E+02      0.2191021562E+03
          0                 3           2             4    7     1      -0.4577452246E+00       4    7    1        -0.2466879712E+02      0.5345990035E+02
          0                 4           2             4    7     1       0.3117234132E-01       4    7    1         0.1726845663E+01      0.3742482186E+01
          0                 5           2             4    7     1      -0.1240684485E-02       4    7    1        -0.7064282268E-01      0.1531009169E+00
          0                 6           1             4    7     1       0.1530951287E-04       4    7    1         0.8957295688E-03      0.1943368920E-02

    ------------------------------------------------
       NWT REQUIRED            6 OUTER ITERATIONS 
       AND A TOTAL OF         11 INNER ITERATIONS.
    ------------------------------------------------

 NO OUTPUT CONTROL FOR STRESS PERIOD    7   TIME STEP   25
 
 SOLVING FOR HEAD 
                                                   Max.-Head-Change                         Max.-Flux-Residual
  Residual-Control   Outer-Iter.   Inner-Iter.     Column Row Layer    Maximum-Head-Change  Column Row Layer    Maximum-Flux-Residual          L2-NORM 
          0                 1           2             4    7     1       0.2726186453E+00       4    7    1         0.1441076654E+02      0.2726989262E+02
          0                 2           2             4    7     1      -0.9643082330E-01       4    7    1        -0.5191163845E+01      0.1172579243E+02
          0                 3           2             4    7     1       0.1831918871E-01       4    7    1         0.1011407069E+01      0.2404810003E+01
          0                 4           2             4    7     1      -0.7289402939E-03       4    7    1        -0.4136677227E-01      0.9850594480E-01
          0                 5           1             4    7     1       0.8988145590E-05       4    7    1         0.5242442376E-03      0.1274840191E-02

    ------------------------------------------------
       NWT REQUIRED            5 OUTER ITERATIONS 
       AND A TOTAL OF          9 INNER ITERATIONS.
    ------------------------------------------------

 NO OUTPUT CONTROL FOR STRESS PERIOD    7   TIME STEP   26
 
 SOLVING FOR HEAD 
                                                   Max.-Head-Change                         Max.-Flux-Residual
  Residual-Control   Outer-Iter.   Inner-Iter.     Column Row Layer    Maximum-Head-Change  Column Row Layer    Maximum-Flux-Residual          L2-NORM 
          0                 1           2             4    7     1       0.3774467276E+00       4    7    1         0.1984337048E+02      0.4011556377E+02
          0                 2           2             4    7     1       0.1759800087E+00       4    7    1         0.9254950443E+01      0.1757331636E+02
          0                 3           2             4    7     1       0.8190768584E-01       4    7    1         0.4314640033E+01      0.7949531695E+01
          0                 4           2             4    7     1       0.3806463352E-01       4    7    1         0.2007532056E+01      0.3603059288E+01
          0                 5           2             4    7     1       0.1766541033E-01       4    7    1         0.9327116555E+00      0.1634542345E+01
          0                 6           2             4    7     1       0.8188250219E-02       4    7    1         0.4327590312E+00      0.7420262681E+00
          0                 7           2             4    7     1       0.3791196157E-02       4    7    1         0.2005490970E+00      0.3370618269E+00
          0                 8           2             4    7     1       0.1753578212E-02       4    7    1         0.9283717253E-01      0.1531912750E+00
          0                 9           2             4    7     1       0.8103603669E-03       4    7    1         0.4293334263E-01      0.6965701028E-01
          0                10           2             4    7     1       0.3741718566E-03       4    7    1         0.1983711953E-01      0.3168674276E-01
                                                   Max.-Head-Change                         Max.-Flux-Residual
  Residual-Control   Outer-Iter.   Inner-Iter.     Column Row Layer    Maximum-Head-Change  Column Row Layer    Maximum-Flux-Residual          L2-NORM 
          0                11           2             4    7     1       0.1726376720E-03       4    7    1         0.9158166752E-02      0.1441953092E-01
          0                12           1             4    7     1       0.7959754978E-04       4    7    1         0.4224890687E-02      0.6563975544E-02

    ------------------------------------------------
       NWT REQUIRED           12 OUTER ITERATIONS 
       AND A TOTAL OF         23 INNER ITERATIONS.
    ------------------------------------------------

 NO OUTPUT CONTROL FOR STRESS PERIOD    7   TIME STEP   27
 
 SOLVING FOR HEAD 
     PET DIFF ERROR     6    4    0.2245436874E-08    0.1500000053E-06
     PET DIFF ERROR     6    5    0.2245443449E-08    0.1500000053E-06
     PET DIFF ERROR     7    4    0.2245436923E-08    0.1500000053E-06
     PET DIFF ERROR     7    5    0.2245443498E-08    0.1500000053E-06
     PET DIFF ERROR     8    4    0.2245436909E-08    0.1500000053E-06
     PET DIFF ERROR     8    5    0.2245440204E-08    0.1500000053E-06
                                                   Max.-Head-Change                         Max.-Flux-Residual
  Residual-Control   Outer-Iter.   Inner-Iter.     Column Row Layer    Maximum-Head-Change  Column Row Layer    Maximum-Flux-Residual          L2-NORM 
          0                 1           2             4    7     1       0.6150697488E+00       4    7    1         0.3234105330E+02      0.6524095594E+02
     PET DIFF ERROR     6    4    0.2245436874E-08    0.1500000053E-06
     PET DIFF ERROR     6    5    0.2245443449E-08    0.1500000053E-06
     PET DIFF ERROR     7    4    0.2245436923E-08    0.1500000053E-06
     PET DIFF ERROR     7    5    0.2245443498E-08    0.1500000053E-06
     PET DIFF ERROR     8    4    0.2245436909E-08    0.1500000053E-06
     PET DIFF ERROR     8    5    0.2245440204E-08    0.1500000053E-06
          0                 2           2             4    7     1       0.2836400684E+00       4    7    1         0.1491461964E+02      0.2914267745E+02
     PET DIFF ERROR     6    4    0.2245436874E-08    0.1500000053E-06
     PET DIFF ERROR     6    5    0.2245443449E-08    0.1500000053E-06
     PET DIFF ERROR     7    4    0.2245436923E-08    0.1500000053E-06
     PET DIFF ERROR     7    5    0.2245443498E-08    0.1500000053E-06
     PET DIFF ERROR     8    4    0.2245436909E-08    0.1500000053E-06
     PET DIFF ERROR     8    5    0.2245440204E-08    0.1500000053E-06
          0                 3           2             4    7     1       0.1299303093E+00       4    7    1         0.6836407385E+01      0.1314340928E+02
     PET DIFF ERROR     6    4    0.2245436874E-08    0.1500000053E-06
     PET DIFF ERROR     6    5    0.2245443449E-08    0.1500000053E-06
     PET DIFF ERROR     7    4    0.2245436923E-08    0.1500000053E-06
     PET DIFF ERROR     7    5    0.2245443498E-08    0.1500000053E-06
     PET DIFF ERROR     8    4    0.2245436909E-08    0.1500000053E-06
     PET DIFF ERROR     8    5    0.2245440204E-08    0.1500000053E-06
          0                 4           2             4    7     1       0.5948148644E-01       4    7    1         0.3131255461E+01      0.5926062002E+01
     PET DIFF ERROR     6    4    0.2245436874E-08    0.1500000053E-06
     PET DIFF ERROR     6    5    0.2245443449E-08    0.1500000053E-06
     PET DIFF ERROR     7    4    0.2245436923E-08    0.1500000053E-06
     PET DIFF ERROR     7    5    0.2245443498E-08    0.1500000053E-06
     PET DIFF ERROR     8    4    0.2245436909E-08    0.1500000053E-06
     PET DIFF ERROR     8    5    0.2245440204E-08    0.1500000053E-06
          0                 5           2             4    7     1       0.2721387115E-01       4    7    1         0.1433319086E+01      0.2673414002E+01
     PET DIFF ERROR     6    4    0.2245436874E-08    0.1500000053E-06
     PET DIFF ERROR     6    5    0.2245443449E-08    0.1500000053E-06
     PET DIFF ERROR     7    4    0.2245436923E-08    0.1500000053E-06
     PET DIFF ERROR     7    5    0.2245443498E-08    0.1500000053E-06
     PET DIFF ERROR     8    4    0.2245436909E-08    0.1500000053E-06
     PET DIFF ERROR     8    5    0.2245440204E-08    0.1500000053E-06
          0                 6           2             4    7     1       0.1244373570E-01       4    7    1         0.6556997730E+00      0.1206594045E+01
     PET DIFF ERROR     6    4    0.2245436874E-08    0.1500000053E-06
     PET DIFF ERROR     6    5    0.2245443449E-08    0.1500000053E-06
     PET DIFF ERROR     7    4    0.2245436923E-08    0.1500000053E-06
     PET DIFF ERROR     7    5    0.2245443498E-08    0.1500000053E-06
     PET DIFF ERROR     8    4    0.2245436909E-08    0.1500000053E-06
     PET DIFF ERROR     8    5    0.2245440204E-08    0.1500000053E-06
          0                 7           2             4    7     1       0.5686920582E-02       4    7    1         0.2997931537E+00      0.5447954588E+00
     PET DIFF ERROR     6    4    0.2245436874E-08    0.1500000053E-06
     PET DIFF ERROR     6    5    0.2245443449E-08    0.1500000053E-06
     PET DIFF ERROR     7    4    0.2245436923E-08    0.1500000053E-06
     PET DIFF ERROR     7    5    0.2245443498E-08    0.1500000053E-06
     PET DIFF ERROR     8    4    0.2245436909E-08    0.1500000053E-06
     PET DIFF ERROR     8    5    0.2245440204E-08    0.1500000053E-06
          0                 8           2             4    7     1       0.2597662551E-02       4    7    1         0.1369956022E+00      0.2460732542E+00
     PET DIFF ERROR     6    4    0.2245436874E-08    0.1500000053E-06
     PET DIFF ERROR     6    5    0.2245443449E-08    0.1500000053E-06
     PET DIFF ERROR     7    4    0.2245436923E-08    0.1500000053E-06
     PET DIFF ERROR     7    5    0.2245443498E-08    0.1500000053E-06
     PET DIFF ERROR     8    4    0.2245436909E-08    0.1500000053E-06
     PET DIFF ERROR     8    5    0.2245440204E-08    0.1500000053E-06
          0                 9           2             4    7     1       0.1185987305E-02       4    7    1         0.6257098811E-01      0.1111828335E+00
     PET DIFF ERROR     6    4    0.2245436874E-08    0.1500000053E-06
     PET DIFF ERROR     6    5    0.2245443449E-08    0.1500000053E-06
     PET DIFF ERROR     7    4    0.2245436923E-08    0.1500000053E-06
     PET DIFF ERROR     7    5    0.2245443498E-08    0.1500000053E-06
     PET DIFF ERROR     8    4    0.2245436909E-08    0.1500000053E-06
     PET DIFF ERROR     8    5    0.2245440204E-08    0.1500000053E-06
          0                10           2             4    7     1       0.5412288827E-03       4    7    1         0.2856494072E-01      0.5025032493E-01
     PET DIFF ERROR     6    4    0.2245436874E-08    0.1500000053E-06
     PET DIFF ERROR     6    5    0.2245443449E-08    0.1500000053E-06
     PET DIFF ERROR     7    4    0.2245436923E-08    0.1500000053E-06
     PET DIFF ERROR     7    5    0.2245443498E-08    0.1500000053E-06
     PET DIFF ERROR     8    4    0.2245436909E-08    0.1500000053E-06
     PET DIFF ERROR     8    5    0.2245440204E-08    0.1500000053E-06
                                                   Max.-Head-Change                         Max.-Flux-Residual
  Residual-Control   Outer-Iter.   Inner-Iter.     Column Row Layer    Maximum-Head-Change  Column Row Layer    Maximum-Flux-Residual          L2-NORM 
          0                11           2             4    7     1       0.2468861599E-03       4    7    1         0.1303464915E-01      0.2271720000E-01
     PET DIFF ERROR     6    4    0.2245436874E-08    0.1500000053E-06
     PET DIFF ERROR     6    5    0.2245443449E-08    0.1500000053E-06
     PET DIFF ERROR     7    4    0.2245436923E-08    0.1500000053E-06
     PET DIFF ERROR     7    5    0.2245443498E-08    0.1500000053E-06
     PET DIFF ERROR     8    4    0.2245436909E-08    0.1500000053E-06
     PET DIFF ERROR     8    5    0.2245440204E-08    0.1500000053E-06
          0                12           1             4    7     1       0.1125739767E-03       4    7    1         0.5945415392E-02      0.1027244619E-01
     PET DIFF ERROR     6    4    0.2245436874E-08    0.1500000053E-06
     PET DIFF ERROR     6    5    0.2245443449E-08    0.1500000053E-06
     PET DIFF ERROR     7    4    0.2245436923E-08    0.1500000053E-06
     PET DIFF ERROR     7    5    0.2245443498E-08    0.1500000053E-06
     PET DIFF ERROR     8    4    0.2245436909E-08    0.1500000053E-06
     PET DIFF ERROR     8    5    0.2245440204E-08    0.1500000053E-06
          0                13           1             4    7     1       0.5131150996E-04       4    7    1         0.2710768439E-02      0.4646069148E-02

    ------------------------------------------------
       NWT REQUIRED           13 OUTER ITERATIONS 
       AND A TOTAL OF         24 INNER ITERATIONS.
    ------------------------------------------------

 NO OUTPUT CONTROL FOR STRESS PERIOD    7   TIME STEP   28
     PET DIFF ERROR     6    4    0.2245436874E-08    0.1500000053E-06
     PET DIFF ERROR     6    5    0.2245443449E-08    0.1500000053E-06
     PET DIFF ERROR     7    4    0.2245436923E-08    0.1500000053E-06
     PET DIFF ERROR     7    5    0.2245443498E-08    0.1500000053E-06
     PET DIFF ERROR     8    4    0.2245436909E-08    0.1500000053E-06
     PET DIFF ERROR     8    5    0.2245440204E-08    0.1500000053E-06
 
 SOLVING FOR HEAD 
                                                   Max.-Head-Change                         Max.-Flux-Residual
  Residual-Control   Outer-Iter.   Inner-Iter.     Column Row Layer    Maximum-Head-Change  Column Row Layer    Maximum-Flux-Residual          L2-NORM 
          0                 1           2             4    7     1       0.5673907611E+00       4    7    1         0.2984672656E+02      0.6058594179E+02
          0                 2           2             4    7     1       0.1926376449E+00       4    7    1         0.1016036162E+02      0.1875283807E+02
          0                 3           2             4    7     1       0.1058775807E+00       4    7    1         0.5574906964E+01      0.1082841583E+02
          0                 4           2             4    7     1       0.4766459109E-01       4    7    1         0.2510302077E+01      0.4855107939E+01
          0                 5           2             4    7     1       0.2145206984E-01       4    7    1         0.1130048583E+01      0.2177696361E+01
          0                 6           2             4    7     1       0.9652373567E-02       4    7    1         0.5085684778E+00      0.9769399032E+00
          0                 7           2             4    7     1       0.4342100657E-02       4    7    1         0.2288206423E+00      0.4383321054E+00
          0                 8           2             4    7     1       0.1952877406E-02       4    7    1         0.1029303180E+00      0.1966962073E+00
          0                 9           2             4    7     1       0.8781469249E-03       4    7    1         0.4629160427E-01      0.8827539022E-01
          0                10           2             4    7     1       0.3948059074E-03       4    7    1         0.2081515395E-01      0.3962129065E-01
                                                   Max.-Head-Change                         Max.-Flux-Residual
  Residual-Control   Outer-Iter.   Inner-Iter.     Column Row Layer    Maximum-Head-Change  Column Row Layer    Maximum-Flux-Residual          L2-NORM 
          0                11           2             4    7     1       0.1774724386E-03       4    7    1         0.9357989296E-02      0.1778516665E-01
          0                12           1             4    7     1       0.7976549085E-04       4    7    1         0.4206466619E-02      0.7984049722E-02

    ------------------------------------------------
       NWT REQUIRED           12 OUTER ITERATIONS 
       AND A TOTAL OF         23 INNER ITERATIONS.
    ------------------------------------------------

 NO OUTPUT CONTROL FOR STRESS PERIOD    7   TIME STEP   29
 
 SOLVING FOR HEAD 
                                                   Max.-Head-Change                         Max.-Flux-Residual
  Residual-Control   Outer-Iter.   Inner-Iter.     Column Row Layer    Maximum-Head-Change  Column Row Layer    Maximum-Flux-Residual          L2-NORM 
          0                 1           2             4    7     1       0.5251868343E+00       4    7    1         0.2763037219E+02      0.5702290808E+02
          0                 2           2             4    7     1       0.2343753338E+00       4    7    1         0.1232915807E+02      0.2497635042E+02
          0                 3           2             4    7     1       0.1045280022E+00       4    7    1         0.5502299786E+01      0.1103812642E+02
          0                 4           2             4    7     1       0.4658948915E-01       4    7    1         0.2453615319E+01      0.4873466959E+01
          0                 5           2             4    7     1       0.2075385148E-01       4    7    1         0.1093493308E+01      0.2150503162E+01
          0                 6           2             4    7     1       0.9240244221E-02       4    7    1         0.4870605403E+00      0.9491623583E+00
          0                 7           2             4    7     1       0.4112055981E-02       4    7    1         0.2168338456E+00      0.4190131426E+00
          0                 8           2             4    7     1       0.1829114050E-02       4    7    1         0.9648613292E-01      0.1850082806E+00
          0                 9           2             4    7     1       0.8132851097E-03       4    7    1         0.4291525000E-01      0.8169997048E-01
          0                10           2             4    7     1       0.3614747952E-03       4    7    1         0.1908012287E-01      0.3608376036E-01
                                                   Max.-Head-Change                         Max.-Flux-Residual
  Residual-Control   Outer-Iter.   Inner-Iter.     Column Row Layer    Maximum-Head-Change  Column Row Layer    Maximum-Flux-Residual          L2-NORM 
          0                11           2             4    7     1       0.1606046895E-03       4    7    1         0.8479810771E-02      0.1593873121E-01
          0                12           1             4    7     1       0.7133362805E-04       4    7    1         0.3767370074E-02      0.7041116728E-02

    ------------------------------------------------
       NWT REQUIRED           12 OUTER ITERATIONS 
       AND A TOTAL OF         23 INNER ITERATIONS.
    ------------------------------------------------

 NO OUTPUT CONTROL FOR STRESS PERIOD    7   TIME STEP   30



 STREAM LISTING     PERIOD      7   STEP       30

 LAYER ROW COL. STREAM  RCH.  FLOW INTO     FLOW TO   FLOW OUT OF   OVRLND.     DIRECT     STREAM       STREAM     STREAM     STREAM   STREAMBED  STREAMBED
                SEG.NO.  NO.  STRM. RCH.    AQUIFER    STRM. RCH.    RUNOFF     PRECIP       ET          HEAD       DEPTH      WIDTH   CONDCTNC.   GRADIENT

   1    1    1     1     1    2.8852E+01  2.6229E-01   2.8590E+01  0.000E+00  0.000E+00  0.000E+00  1.09428E+03  1.233E+00  1.377E+01  6.197E-02  1.411E+00
   1    2    2     1     2    2.8590E+01  4.0577E-01   2.8184E+01  0.000E+00  0.000E+00  0.000E+00  1.08929E+03  1.228E+00  1.371E+01  9.596E-02  1.409E+00
   1    3    3     1     3    2.8184E+01  3.4562E-01   2.7838E+01  0.000E+00  0.000E+00  0.000E+00  1.08364E+03  1.223E+00  1.364E+01  8.184E-02  1.408E+00
   1    3    4     1     4    2.7838E+01  3.1791E-01   2.7521E+01  0.000E+00  0.000E+00  0.000E+00  1.07863E+03  1.219E+00  1.358E+01  7.536E-02  1.406E+00
   1    4    5     2     1    2.5521E+01  3.2899E-01   2.5192E+01  0.000E+00  0.000E+00  0.000E+00  1.07315E+03  1.218E+00  1.200E+01  7.800E-02  1.406E+00
   1    5    6     2     2    2.5192E+01  2.5257E-01   2.4939E+01  0.000E+00  0.000E+00  0.000E+00  1.06772E+03  1.209E+00  1.200E+01  6.000E-02  1.403E+00
   1    6    6     2     3    2.4939E+01  2.5213E-01   2.4687E+01  0.000E+00  0.000E+00  0.000E+00  1.06299E+03  1.202E+00  1.200E+01  6.000E-02  1.401E+00
   1    7    6     2     4    2.4687E+01  2.5169E-01   2.4435E+01  0.000E+00  0.000E+00  0.000E+00  1.05827E+03  1.195E+00  1.200E+01  6.000E-02  1.398E+00
   1    8    6     2     5    2.4435E+01  2.5125E-01   2.4184E+01  0.000E+00  0.000E+00  0.000E+00  1.05355E+03  1.187E+00  1.200E+01  6.000E-02  1.396E+00
   1    3    5     3     1    2.0000E+00  2.8252E-01   1.7175E+00  0.000E+00  0.000E+00  0.000E+00  1.07555E+03  1.909E+00  9.636E+00  7.227E-02  1.955E+00
   1    3    6     3     2    1.7175E+00  2.4905E-01   1.4684E+00  0.000E+00  0.000E+00  0.000E+00  1.07264E+03  1.727E+00  8.909E+00  6.682E-02  1.864E+00
   1    3    7     3     3    1.4684E+00  1.9718E-01   1.2712E+00  0.000E+00  0.000E+00  0.000E+00  1.06987E+03  1.555E+00  8.218E+00  5.547E-02  1.777E+00
   1    4    8     3     4    1.2712E+00  2.2567E-01   1.0456E+00  0.000E+00  0.000E+00  0.000E+00  1.06682E+03  1.364E+00  7.455E+00  6.709E-02  1.682E+00
   1    5    8     3     5    1.0456E+00  1.5790E-01   8.8768E-01  0.000E+00  0.000E+00  0.000E+00  1.06362E+03  1.164E+00  6.655E+00  4.991E-02  1.582E+00
   1    6    8     3     6    8.8768E-01  5.5980E-02   8.3170E-01  0.000E+00  0.000E+00  0.000E+00  1.06158E+03  1.036E+00  6.145E+00  1.844E-02  1.518E+00
   1    5   10     4     1    1.0000E+01  9.0919E-02   9.9091E+00  0.000E+00  0.000E+00  0.000E+00  1.07836E+03  6.368E-01  1.000E+01  2.500E-02  1.212E+00
   1    5    9     4     2    9.9091E+00  1.8158E-01   9.7275E+00  0.000E+00  0.000E+00  0.000E+00  1.07154E+03  6.315E-01  1.000E+01  5.000E-02  1.211E+00
   1    6    8     4     3    9.7275E+00  1.2689E-01   9.6006E+00  0.000E+00  0.000E+00  0.000E+00  1.06381E+03  6.256E-01  1.000E+01  3.500E-02  1.209E+00
   1    6    8     5     1    1.0432E+01  2.2686E-01   1.0205E+01  0.000E+00  0.000E+00  0.000E+00  1.05868E+03  6.790E-01  1.542E+01  6.166E-02  1.226E+00
   1    7    7     5     2    1.0205E+01  2.7894E-01   9.9265E+00  0.000E+00  0.000E+00  0.000E+00  1.05417E+03  6.732E-01  1.519E+01  7.594E-02  1.224E+00
   1    8    7     5     3    9.9265E+00  1.9221E-01   9.7343E+00  0.000E+00  0.000E+00  0.000E+00  1.04992E+03  6.676E-01  1.497E+01  5.241E-02  1.223E+00
   1    8    6     5     4    9.7343E+00  1.3577E-01   9.5985E+00  0.000E+00  0.000E+00  0.000E+00  1.04691E+03  6.637E-01  1.482E+01  3.706E-02  1.221E+00
   1    9    6     6     1    3.3782E+01  2.6756E-01   3.3515E+01  0.000E+00  0.000E+00  0.000E+00  1.04419E+03  1.459E+00  1.200E+01  6.000E-02  1.486E+00
   1   10    7     6     2    3.3515E+01  2.6714E-01   3.3248E+01  0.000E+00  0.000E+00  0.000E+00  1.03963E+03  1.452E+00  1.200E+01  6.000E-02  1.484E+00
   1   11    7     6     3    3.3248E+01  2.6672E-01   3.2981E+01  0.000E+00  0.000E+00  0.000E+00  1.03508E+03  1.445E+00  1.200E+01  6.000E-02  1.482E+00
   1   12    7     6     4    3.2981E+01  2.6630E-01   3.2715E+01  0.000E+00  0.000E+00  0.000E+00  1.03053E+03  1.438E+00  1.200E+01  6.000E-02  1.479E+00
   1   13    7     6     5    3.2715E+01  1.1913E-02   3.2703E+01  0.000E+00  0.000E+00  0.000E+00  1.02734E+03  1.435E+00  1.200E+01  2.400E-02  1.655E-01
   1   14    9     7     1    1.5000E+02  1.3680E+00   1.4863E+02  0.000E+00  0.000E+00  0.000E+00  1.03987E+03  2.288E+00  5.529E+01  5.593E-01  8.153E-01
   1   13    8     7     2    1.4863E+02  1.9164E+00   1.4672E+02  0.000E+00  0.000E+00  0.000E+00  1.03478E+03  2.279E+00  5.526E+01  6.148E-01  1.039E+00
   1   13    7     7     3    1.4672E+02  1.5867E+00   1.4513E+02  0.000E+00  0.000E+00  0.000E+00  1.02969E+03  2.270E+00  5.521E+01  5.584E-01  9.472E-01
   1   13    6     8     1    1.7783E+02  1.0573E+00   1.7677E+02  0.000E+00  0.000E+00  0.000E+00  1.02487E+03  2.999E+00  4.349E+01  4.432E-01  7.953E-01
   1   13    5     8     2    1.7677E+02  2.8135E-01   1.7649E+02  0.000E+00  0.000E+00  0.000E+00  1.01862E+03  2.995E+00  4.343E+01  4.425E-01  2.119E-01
   1   13    4     8     3    1.7649E+02 -1.9734E+00   1.7847E+02  0.000E+00  0.000E+00  0.000E+00  1.01238E+03  3.000E+00  4.350E+01  4.433E+00 -1.484E-01
   1   13    3     8     4    1.7847E+02 -3.3286E+00   1.8180E+02  0.000E+00  0.000E+00  0.000E+00  1.00614E+03  3.017E+00  4.375E+01  4.458E+00 -2.489E-01
   1   13    2     8     5    1.8180E+02 -2.3078E+00   1.8410E+02  0.000E+00  0.000E+00  0.000E+00  9.99910E+02  3.035E+00  4.400E+01  4.484E+00 -1.716E-01
   1   13    1     8     6    1.8410E+02 -1.8294E+00   1.8593E+02  0.000E+00  0.000E+00  0.000E+00  9.94922E+02  3.047E+00  4.419E+01  2.702E+00 -2.257E-01
   1    8    6     9     1    0.0000E+00  0.0000E+00   0.0000E+00  0.000E+00  0.000E+00  0.000E+00  1.07875E+03  0.000E+00  4.000E+00  0.000E+00  1.000E+00
   1    8    5     9     2    0.0000E+00  0.0000E+00   0.0000E+00  0.000E+00  0.000E+00  0.000E+00  1.07825E+03  0.000E+00  4.000E+00  0.000E+00  1.000E+00





UNSATURATED ZONE PACKAGE VOLUMETRIC BUDGET FOR  TIME STEP    30 STRESS PERIOD    7
  ------------------------------------------------------------------------------



     CUMULATIVE VOLUMES      L**3       RATES FOR THIS TIME STEP      L**3/T
     ------------------                 ------------------------

           IN:                                      IN:
           ---                                      ---
        INFILTRATION =  1485207139.4945          INFILTRATION =           0.8475

          OUT:                                     OUT:
          ----                                     ----
              UZF ET =   102105931.1492                UZF ET =          23.4810
        UZF RECHARGE =   512146277.0312          UZF RECHARGE =         224.6941

            IN - OUT =   870954931.3140              IN - OUT =        -247.3276

          STORAGE:                                 STORAGE:
          --------                                 --------
      STORAGE CHANGE =   871133751.9428        STORAGE CHANGE =        -247.3454

 PERCENT DISCREPANCY IS DIFFERENCE BETWEEN IN-OUT MINUS CHANGE IN STORAGE
 DIVIDED BY THE AVERAGE OF IN AND OUT TIMES 100

 PERCENT DISCREPANCY =          -0.00     PERCENT DISCREPANCY =           0.01






1
  VOLUMETRIC BUDGET FOR AGRICULTURAL FIELDS AT  END OF TIME STEP   30, STRESS PERIOD   7
  ------------------------------------------------------------------------------

     CUMULATIVE VOLUMES      L**3       RATES FOR THIS TIME STEP      L**3/T
     ------------------                 ------------------------

           IN:                                      IN:
           ---                                      ---
               AG WELLS  =  1384099072.0000                 AG WELLS  =           0.0000
      DIVERSION SEGMENTS =    87666440.0000        DIVERSION SEGMENTS =           0.0000
           GW IRRIGATION =           0.0000             GW IRRIGATION =           0.0000
           SW IRRIGATION =           0.0000             SW IRRIGATION =           0.0000
        SYSTEM LOSSES GW =           0.0000          SYSTEM LOSSES GW =           0.0000
        SYSTEM LOSSES SW =           0.0000          SYSTEM LOSSES SW =           0.0000

                TOTAL IN =  1471765504.0000                  TOTAL IN =           0.0000

          OUT:                                     OUT:
          ----                                     ----
               AG WELLS  =           0.0000                 AG WELLS  =           0.0000
      DIVERSION SEGMENTS =           0.0000        DIVERSION SEGMENTS =           0.0000
           GW IRRIGATION =  1384099072.0000             GW IRRIGATION =           0.0000
           SW IRRIGATION =    87668160.0000             SW IRRIGATION =           0.0000
        SYSTEM LOSSES GW =           0.0000          SYSTEM LOSSES GW =           0.0000
        SYSTEM LOSSES SW =           0.0000          SYSTEM LOSSES SW =           0.0000

               TOTAL OUT =  1471767296.0000                 TOTAL OUT =           0.0000

                IN - OUT =       -1792.0000                  IN - OUT =           0.0000

     PERCENT DISCREPANCY =          -0.00         PERCENT DISCREPANCY =           0.00



1
  VOLUMETRIC BUDGET FOR ENTIRE MODEL AT END OF TIME STEP   30, STRESS PERIOD   7
  ------------------------------------------------------------------------------

     CUMULATIVE VOLUMES      L**3       RATES FOR THIS TIME STEP      L**3/T
     ------------------                 ------------------------

           IN:                                      IN:
           ---                                      ---
             STORAGE     =  1600619264.0000               STORAGE     =          43.6952
       CONSTANT HEAD     =           0.0000         CONSTANT HEAD     =           0.0000
     HEAD DEP BOUNDS     =     4567464.5000       HEAD DEP BOUNDS     =           0.2880
      STREAM LEAKAGE     =   188013728.0000        STREAM LEAKAGE     =          12.3590
        UZF RECHARGE     =   512146240.0000          UZF RECHARGE     =         224.6941
               GW ET     =           0.0000                 GW ET     =           0.0000
     SURFACE LEAKAGE     =           0.0000       SURFACE LEAKAGE     =           0.0000
           AG WELLS      =           0.0000             AG WELLS      =           0.0000

                TOTAL IN =  2305346560.0000                  TOTAL IN =         281.0363

          OUT:                                     OUT:
          ----                                     ----
             STORAGE     =   753984256.0000               STORAGE     =         271.3009
       CONSTANT HEAD     =           0.0000         CONSTANT HEAD     =           0.0000
     HEAD DEP BOUNDS     =     4576773.0000       HEAD DEP BOUNDS     =           0.2888
      STREAM LEAKAGE     =   162678608.0000        STREAM LEAKAGE     =           9.4392
        UZF RECHARGE     =           0.0000          UZF RECHARGE     =           0.0000
               GW ET     =           0.0000                 GW ET     =           0.0000
     SURFACE LEAKAGE     =           0.0000       SURFACE LEAKAGE     =           0.0000
           AG WELLS      =  1384099072.0000             AG WELLS      =           0.0000

               TOTAL OUT =  2305338624.0000                 TOTAL OUT =         281.0288

                IN - OUT =        7936.0000                  IN - OUT =       7.4463E-03

     PERCENT DISCREPANCY =           0.00         PERCENT DISCREPANCY =           0.00






         TIME SUMMARY AT END OF TIME STEP   30 IN STRESS PERIOD    7
                    SECONDS     MINUTES      HOURS       DAYS        YEARS
                    -----------------------------------------------------------
   TIME STEP LENGTH  87667.      1461.1      24.352      1.0147     2.77799E-03
 STRESS PERIOD TIME 2.63000E+06  43833.      730.56      30.440     8.33397E-02
         TOTAL TIME 1.58664E+07 2.64440E+05  4407.3      183.64     0.50278    
1
1
                            STRESS PERIOD NO.    8, LENGTH =   2630000.    
                            -----------------------------------------------

                              NUMBER OF TIME STEPS =    30

                               MULTIPLIER FOR DELT =     1.000

                            INITIAL TIME STEP SIZE =   87666.66    

 REUSING NON-PARAMETER GHB CELLS FROM LAST STRESS PERIOD

      2 GHB CELLS

 REUSING STREAM SEGMENT DATA FROM LAST STRESS PERIOD



            AREAL INFILTRATION RATE
 READING ON UNIT   19 WITH FORMAT: (FREE)              

            1           2           3           4           5           6           7           8           9          10
 ........................................................................................................................
   1   1.0000E-10  2.0000E-10   0.000       0.000       0.000       0.000       0.000       0.000       0.000       0.000    
   2   2.0000E-10  1.0000E-10  2.0000E-10   0.000       0.000      8.0000E-10  8.0000E-10  5.0000E-10   0.000       0.000    
   3    0.000      5.0000E-10  1.0000E-10  1.0000E-10  8.0000E-10  8.0000E-10  5.0000E-10  5.0000E-10   0.000       0.000    
   4   8.0000E-10  5.0000E-10  1.0000E-10  1.0000E-10  1.0000E-10  1.0000E-10  1.0000E-10  1.0000E-10  2.0000E-10   0.000    
   5   8.0000E-10  5.0000E-10  1.0000E-10  1.0000E-10  1.0000E-10  1.0000E-10  1.0000E-10  1.0000E-10  1.0000E-10  1.0000E-10
   6   8.0000E-10  5.0000E-10  5.0000E-10  2.0000E-10  2.0000E-10  1.0000E-10  1.0000E-10  1.0000E-10  1.0000E-10  5.0000E-10
   7   8.0000E-10  5.0000E-10  5.0000E-10  2.0000E-10  2.0000E-10  1.0000E-10  1.0000E-10  2.0000E-10  2.0000E-10   0.000    
   8    0.000      5.0000E-10  5.0000E-10  2.0000E-10  2.0000E-10  1.0000E-10  1.0000E-10  2.0000E-10  5.0000E-10   0.000    
   9    0.000      5.0000E-10  5.0000E-10  2.0000E-10  2.0000E-10  1.0000E-10  1.0000E-10  2.0000E-10  5.0000E-10   0.000    
  10    0.000      5.0000E-10  5.0000E-10  2.0000E-10  2.0000E-10  1.0000E-10  1.0000E-10  2.0000E-10  5.0000E-10  8.0000E-10
  11    0.000      1.0000E-10  1.0000E-10  1.0000E-10  1.0000E-10  1.0000E-10  1.0000E-10  2.0000E-10  5.0000E-10   0.000    
  12   1.0000E-10  1.0000E-10  1.0000E-10  1.0000E-10  1.0000E-10  1.0000E-10  1.0000E-10  1.0000E-10  2.0000E-10   0.000    
  13   1.0000E-10  1.0000E-10  2.0000E-10  2.0000E-10  2.0000E-10  2.0000E-10  2.0000E-10  1.0000E-10  1.0000E-10   0.000    
  14    0.000      2.0000E-10  5.0000E-10  5.0000E-10  5.0000E-10  5.0000E-10  5.0000E-10  2.0000E-10  1.0000E-10   0.000    
  15    0.000       0.000      8.0000E-10  8.0000E-10  8.0000E-10  8.0000E-10   0.000       0.000       0.000       0.000    

                  ET RATE =  4.000000E-07

 USING ET EXTINCTION DEPTH FROM PREVIOUS STRESS PERIOD. CURRENT PERIOD IS:       8

 USING EXTINCTION WATER CONTENT FROM PREVIOUS STRESS PERIOD. CURRENT PERIOD IS:       8

 USING AIR ENTRY PRESSURE FROM PREVIOUS STRESS PERIOD. CURRENT PERIOD IS:       8

 USING ROOT PRESSURE HEAD FROM PREVIOUS STRESS PERIOD. CURRENT PERIOD IS:       8

 USING ROOT ACTIVITY FROM PREVIOUS STRESS PERIOD. CURRENT PERIOD IS:       8

 PROCESSING AG STRESS PERIOD DATA

 READING AG STRESS PERIOD DATA

 READING IRRIGATION SEGMENT

 READING IRRIGATION WELL

 READING SUPPLEMENTAL WELL

 END PROCESSING AG STRESS PERIOD DATA OPTIONS
 
 SOLVING FOR HEAD 
                                                   Max.-Head-Change                         Max.-Flux-Residual
  Residual-Control   Outer-Iter.   Inner-Iter.     Column Row Layer    Maximum-Head-Change  Column Row Layer    Maximum-Flux-Residual          L2-NORM 
          0                 1           2             4    7     1       0.4904730596E+00       4    7    1         0.2570170385E+02      0.5616471009E+02
          0                 2           2             5    8     1      -0.1659543767E+01       5    8    1        -0.9143516486E+02      0.2200029180E+03
          0                 3           2             4    8     1      -0.4683916553E+00       4    8    1        -0.2552950053E+02      0.5392410775E+02
          0                 4           2             4    8     1       0.3189742821E-01       4    8    1         0.1787110862E+01      0.3775058631E+01
          0                 5           2             4    8     1      -0.1269543202E-02       4    8    1        -0.7310910540E-01      0.1544358428E+00
          0                 6           1             4    8     1       0.1566560585E-04       4    8    1         0.9270653388E-03      0.1958827731E-02

    ------------------------------------------------
       NWT REQUIRED            6 OUTER ITERATIONS 
       AND A TOTAL OF         11 INNER ITERATIONS.
    ------------------------------------------------

 OUTPUT CONTROL FOR STRESS PERIOD    8   TIME STEP    1
    PRINT BUDGET
    SAVE BUDGET
 UBDSV1 SAVING "         STORAGE" ON UNIT 102 AT TIME STEP  1, STRESS PERIOD   8
 UBDSV2 SAVING "   CONSTANT HEAD" ON UNIT 102 AT TIME STEP  1, STRESS PERIOD   8
 UBDSV1 SAVING "FLOW RIGHT FACE " ON UNIT 102 AT TIME STEP  1, STRESS PERIOD   8
 UBDSV1 SAVING "FLOW FRONT FACE " ON UNIT 102 AT TIME STEP  1, STRESS PERIOD   8

  HEAD DEP BOUNDS   PERIOD    8   STEP     1
 BOUNDARY      1   LAYER   1   ROW    13   COL     1   RATE   -0.288692    
 BOUNDARY      2   LAYER   1   ROW    14   COL     9   RATE    0.287951    



 STREAM LISTING     PERIOD      8   STEP        1

 LAYER ROW COL. STREAM  RCH.  FLOW INTO     FLOW TO   FLOW OUT OF   OVRLND.     DIRECT     STREAM       STREAM     STREAM     STREAM   STREAMBED  STREAMBED
                SEG.NO.  NO.  STRM. RCH.    AQUIFER    STRM. RCH.    RUNOFF     PRECIP       ET          HEAD       DEPTH      WIDTH   CONDCTNC.   GRADIENT

   1    1    1     1     1    2.8125E+01  2.5915E-01   2.7866E+01  0.000E+00  0.000E+00  0.000E+00  1.09427E+03  1.223E+00  1.364E+01  6.137E-02  1.408E+00
   1    2    2     1     2    2.7866E+01  4.0087E-01   2.7465E+01  0.000E+00  0.000E+00  0.000E+00  1.08928E+03  1.218E+00  1.358E+01  9.503E-02  1.406E+00
   1    3    3     1     3    2.7465E+01  3.4143E-01   2.7124E+01  0.000E+00  0.000E+00  0.000E+00  1.08363E+03  1.213E+00  1.351E+01  8.104E-02  1.404E+00
   1    3    4     1     4    2.7124E+01  3.1403E-01   2.6810E+01  0.000E+00  0.000E+00  0.000E+00  1.07862E+03  1.209E+00  1.344E+01  7.461E-02  1.403E+00
   1    4    5     2     1    2.4810E+01  3.2739E-01   2.4482E+01  0.000E+00  0.000E+00  0.000E+00  1.07313E+03  1.197E+00  1.200E+01  7.800E-02  1.399E+00
   1    5    6     2     2    2.4482E+01  2.5133E-01   2.4231E+01  0.000E+00  0.000E+00  0.000E+00  1.06770E+03  1.189E+00  1.200E+01  6.000E-02  1.396E+00
   1    6    6     2     3    2.4231E+01  2.5089E-01   2.3980E+01  0.000E+00  0.000E+00  0.000E+00  1.06297E+03  1.181E+00  1.200E+01  6.000E-02  1.394E+00
   1    7    6     2     4    2.3980E+01  2.5044E-01   2.3730E+01  0.000E+00  0.000E+00  0.000E+00  1.05825E+03  1.174E+00  1.200E+01  6.000E-02  1.391E+00
   1    8    6     2     5    2.3730E+01  2.5000E-01   2.3480E+01  0.000E+00  0.000E+00  0.000E+00  1.05353E+03  1.167E+00  1.200E+01  6.000E-02  1.389E+00
   1    3    5     3     1    2.0000E+00  2.8252E-01   1.7175E+00  0.000E+00  0.000E+00  0.000E+00  1.07555E+03  1.909E+00  9.636E+00  7.227E-02  1.955E+00
   1    3    6     3     2    1.7175E+00  2.4905E-01   1.4684E+00  0.000E+00  0.000E+00  0.000E+00  1.07264E+03  1.727E+00  8.909E+00  6.682E-02  1.864E+00
   1    3    7     3     3    1.4684E+00  1.9718E-01   1.2712E+00  0.000E+00  0.000E+00  0.000E+00  1.06987E+03  1.555E+00  8.218E+00  5.547E-02  1.777E+00
   1    4    8     3     4    1.2712E+00  2.2567E-01   1.0456E+00  0.000E+00  0.000E+00  0.000E+00  1.06682E+03  1.364E+00  7.455E+00  6.709E-02  1.682E+00
   1    5    8     3     5    1.0456E+00  1.5790E-01   8.8768E-01  0.000E+00  0.000E+00  0.000E+00  1.06362E+03  1.164E+00  6.655E+00  4.991E-02  1.582E+00
   1    6    8     3     6    8.8768E-01  5.5980E-02   8.3170E-01  0.000E+00  0.000E+00  0.000E+00  1.06158E+03  1.036E+00  6.145E+00  1.844E-02  1.518E+00
   1    5   10     4     1    1.0000E+01  9.0919E-02   9.9091E+00  0.000E+00  0.000E+00  0.000E+00  1.07836E+03  6.368E-01  1.000E+01  2.500E-02  1.212E+00
   1    5    9     4     2    9.9091E+00  1.8158E-01   9.7275E+00  0.000E+00  0.000E+00  0.000E+00  1.07154E+03  6.315E-01  1.000E+01  5.000E-02  1.211E+00
   1    6    8     4     3    9.7275E+00  1.2689E-01   9.6006E+00  0.000E+00  0.000E+00  0.000E+00  1.06381E+03  6.256E-01  1.000E+01  3.500E-02  1.209E+00
   1    6    8     5     1    1.0432E+01  2.2686E-01   1.0205E+01  0.000E+00  0.000E+00  0.000E+00  1.05868E+03  6.790E-01  1.542E+01  6.166E-02  1.226E+00
   1    7    7     5     2    1.0205E+01  2.7894E-01   9.9265E+00  0.000E+00  0.000E+00  0.000E+00  1.05417E+03  6.732E-01  1.519E+01  7.594E-02  1.224E+00
   1    8    7     5     3    9.9265E+00  1.9221E-01   9.7343E+00  0.000E+00  0.000E+00  0.000E+00  1.04992E+03  6.676E-01  1.497E+01  5.241E-02  1.223E+00
   1    8    6     5     4    9.7343E+00  1.3577E-01   9.5985E+00  0.000E+00  0.000E+00  0.000E+00  1.04691E+03  6.637E-01  1.482E+01  3.706E-02  1.221E+00
   1    9    6     6     1    9.5985E+00  2.2097E-01   9.3776E+00  0.000E+00  0.000E+00  0.000E+00  1.04341E+03  6.828E-01  1.200E+01  6.000E-02  1.228E+00
   1   10    7     6     2    9.3776E+00  2.2039E-01   9.1572E+00  0.000E+00  0.000E+00  0.000E+00  1.03885E+03  6.732E-01  1.200E+01  6.000E-02  1.224E+00
   1   11    7     6     3    9.1572E+00  2.1981E-01   8.9374E+00  0.000E+00  0.000E+00  0.000E+00  1.03430E+03  6.636E-01  1.200E+01  6.000E-02  1.221E+00
   1   12    7     6     4    8.9374E+00  2.1923E-01   8.7181E+00  0.000E+00  0.000E+00  0.000E+00  1.02974E+03  6.539E-01  1.200E+01  6.000E-02  1.218E+00
   1   13    7     6     5    8.7181E+00 -6.8885E-02   8.7870E+00  0.000E+00  0.000E+00  0.000E+00  1.02656E+03  6.505E-01  1.200E+01  2.400E-01 -9.567E-02
   1   14    9     7     1    1.5000E+02  1.3680E+00   1.4863E+02  0.000E+00  0.000E+00  0.000E+00  1.03987E+03  2.288E+00  5.529E+01  5.593E-01  8.153E-01
   1   13    8     7     2    1.4863E+02  1.9164E+00   1.4672E+02  0.000E+00  0.000E+00  0.000E+00  1.03478E+03  2.279E+00  5.526E+01  6.148E-01  1.039E+00
   1   13    7     7     3    1.4672E+02  1.5871E+00   1.4513E+02  0.000E+00  0.000E+00  0.000E+00  1.02969E+03  2.270E+00  5.521E+01  5.584E-01  9.474E-01
   1   13    6     8     1    1.5392E+02  9.3575E-01   1.5298E+02  0.000E+00  0.000E+00  0.000E+00  1.02472E+03  2.841E+00  4.119E+01  4.198E-01  7.431E-01
   1   13    5     8     2    1.5298E+02  2.0095E-01   1.5278E+02  0.000E+00  0.000E+00  0.000E+00  1.01846E+03  2.837E+00  4.114E+01  4.192E-01  1.598E-01
   1   13    4     8     3    1.5278E+02 -2.5018E+00   1.5528E+02  0.000E+00  0.000E+00  0.000E+00  1.01222E+03  2.845E+00  4.125E+01  4.204E+00 -1.984E-01
   1   13    3     8     4    1.5528E+02 -3.7816E+00   1.5906E+02  0.000E+00  0.000E+00  0.000E+00  1.00599E+03  2.867E+00  4.157E+01  4.236E+00 -2.976E-01
   1   13    2     8     5    1.5906E+02 -2.7995E+00   1.6186E+02  0.000E+00  0.000E+00  0.000E+00  9.99764E+02  2.889E+00  4.189E+01  4.269E+00 -2.186E-01
   1   13    1     8     6    1.6186E+02 -2.1037E+00   1.6397E+02  0.000E+00  0.000E+00  0.000E+00  9.94780E+02  2.905E+00  4.213E+01  2.576E+00 -2.722E-01
   1    8    6     9     1    2.3480E+01  0.0000E+00   2.3480E+01  0.000E+00  0.000E+00  0.000E+00  1.08253E+03  3.782E+00  4.000E+00  0.000E+00  2.261E+00
   1    8    5     9     2    2.3480E+01  0.0000E+00   2.3480E+01  0.000E+00  0.000E+00  0.000E+00  1.08203E+03  3.782E+00  4.000E+00  0.000E+00  2.261E+00



 UBDSV3 SAVING "           GW ET" ON UNIT  61 AT TIME STEP  1, STRESS PERIOD   8
 UBDSV3 SAVING "    UZF RECHARGE" ON UNIT  61 AT TIME STEP  1, STRESS PERIOD   8
 UBDSV3 SAVING " SURFACE LEAKAGE" ON UNIT  61 AT TIME STEP  1, STRESS PERIOD   8
 UBDSV3 SAVING "       HORT+DUNN" ON UNIT  61 AT TIME STEP  1, STRESS PERIOD   8
 UBDSV3 SAVING "  STORAGE CHANGE" ON UNIT  61 AT TIME STEP  1, STRESS PERIOD   8


UNSATURATED ZONE PACKAGE VOLUMETRIC BUDGET FOR  TIME STEP     1 STRESS PERIOD    8
  ------------------------------------------------------------------------------



     CUMULATIVE VOLUMES      L**3       RATES FOR THIS TIME STEP      L**3/T
     ------------------                 ------------------------

           IN:                                      IN:
           ---                                      ---
        INFILTRATION =  1539939850.9904          INFILTRATION =         624.3275

          OUT:                                     OUT:
          ----                                     ----
              UZF ET =   107437598.3951                UZF ET =          60.8175
        UZF RECHARGE =   512146277.0312          UZF RECHARGE =       0.0000E+00

            IN - OUT =   920355975.5640              IN - OUT =         563.5100

          STORAGE:                                 STORAGE:
          --------                                 --------
      STORAGE CHANGE =   920533345.0534        STORAGE CHANGE =         563.4935

 PERCENT DISCREPANCY IS DIFFERENCE BETWEEN IN-OUT MINUS CHANGE IN STORAGE
 DIVIDED BY THE AVERAGE OF IN AND OUT TIMES 100

 PERCENT DISCREPANCY =          -0.00     PERCENT DISCREPANCY =           0.00






 

            AG WELLS      PERIOD    8   STEP   1
 AG WELL      1   LAYER   1   ROW     6   COL     4   RATE    -100.000    
 AG WELL      2   LAYER   1   ROW     6   COL     5   RATE    -100.000    
 AG WELL      3   LAYER   1   ROW     7   COL     4   RATE    -100.000    
 AG WELL      4   LAYER   1   ROW     7   COL     5   RATE    -100.000    
 AG WELL      5   LAYER   1   ROW     8   COL     4   RATE    -100.000    
 AG WELL      6   LAYER   1   ROW     8   COL     5   RATE    -100.000    
 
 

   DIVERSION SEGMENTS     PERIOD    8   STEP   1
 SEGMENT      9   RATE     23.4796    
 
 

        SW IRRIGATION     PERIOD    8   STEP   1
 SEGMENT      9   ROW     6   COL     4   RATE     3.91334    
 SEGMENT      9   ROW     6   COL     5   RATE     3.91334    
 SEGMENT      9   ROW     7   COL     4   RATE     3.91334    
 SEGMENT      9   ROW     7   COL     5   RATE     3.91334    
 SEGMENT      9   ROW     8   COL     4   RATE     3.91334    
 SEGMENT      9   ROW     8   COL     5   RATE     3.91334    
 
 

        GW IRRIGATION     PERIOD    8   STEP   1
 AG WELL      1   ROW     6   COL     4   RATE     100.000    
 AG WELL      2   ROW     6   COL     5   RATE     100.000    
 AG WELL      3   ROW     7   COL     4   RATE     100.000    
 AG WELL      4   ROW     7   COL     5   RATE     100.000    
 AG WELL      5   ROW     8   COL     4   RATE     100.000    
 AG WELL      6   ROW     8   COL     5   RATE     100.000    
 
1
  VOLUMETRIC BUDGET FOR AGRICULTURAL FIELDS AT  END OF TIME STEP    1, STRESS PERIOD   8
  ------------------------------------------------------------------------------

     CUMULATIVE VOLUMES      L**3       RATES FOR THIS TIME STEP      L**3/T
     ------------------                 ------------------------

           IN:                                      IN:
           ---                                      ---
               AG WELLS  =  1436699136.0000                 AG WELLS  =         600.0000
      DIVERSION SEGMENTS =    89724816.0000        DIVERSION SEGMENTS =          23.4796
           GW IRRIGATION =           0.0000             GW IRRIGATION =           0.0000
           SW IRRIGATION =           0.0000             SW IRRIGATION =           0.0000
        SYSTEM LOSSES GW =           0.0000          SYSTEM LOSSES GW =           0.0000
        SYSTEM LOSSES SW =           0.0000          SYSTEM LOSSES SW =           0.0000

                TOTAL IN =  1526423936.0000                  TOTAL IN =         623.4796

          OUT:                                     OUT:
          ----                                     ----
               AG WELLS  =           0.0000                 AG WELLS  =           0.0000
      DIVERSION SEGMENTS =           0.0000        DIVERSION SEGMENTS =           0.0000
           GW IRRIGATION =  1436699136.0000             GW IRRIGATION =         600.0000
           SW IRRIGATION =    89726576.0000             SW IRRIGATION =          23.4801
        SYSTEM LOSSES GW =           0.0000          SYSTEM LOSSES GW =           0.0000
        SYSTEM LOSSES SW =           0.0000          SYSTEM LOSSES SW =           0.0000

               TOTAL OUT =  1526425728.0000                 TOTAL OUT =         623.4800

                IN - OUT =       -1792.0000                  IN - OUT =      -4.2725E-04

     PERCENT DISCREPANCY =          -0.00         PERCENT DISCREPANCY =          -0.00



1
  VOLUMETRIC BUDGET FOR ENTIRE MODEL AT END OF TIME STEP    1, STRESS PERIOD   8
  ------------------------------------------------------------------------------

     CUMULATIVE VOLUMES      L**3       RATES FOR THIS TIME STEP      L**3/T
     ------------------                 ------------------------

           IN:                                      IN:
           ---                                      ---
             STORAGE     =  1653202176.0000               STORAGE     =         599.8055
       CONSTANT HEAD     =           0.0000         CONSTANT HEAD     =           0.0000
     HEAD DEP BOUNDS     =     4592708.0000       HEAD DEP BOUNDS     =           0.2880
      STREAM LEAKAGE     =   189060080.0000        STREAM LEAKAGE     =          11.9356
        UZF RECHARGE     =   512146240.0000          UZF RECHARGE     =           0.0000
               GW ET     =           0.0000                 GW ET     =           0.0000
     SURFACE LEAKAGE     =           0.0000       SURFACE LEAKAGE     =           0.0000
           AG WELLS      =           0.0000             AG WELLS      =           0.0000

                TOTAL IN =  2359001344.0000                  TOTAL IN =         612.0291

          OUT:                                     OUT:
          ----                                     ----
             STORAGE     =   754026752.0000               STORAGE     =           0.4849
       CONSTANT HEAD     =           0.0000         CONSTANT HEAD     =           0.0000
     HEAD DEP BOUNDS     =     4602081.5000       HEAD DEP BOUNDS     =           0.2887
      STREAM LEAKAGE     =   163665344.0000        STREAM LEAKAGE     =          11.2555
        UZF RECHARGE     =           0.0000          UZF RECHARGE     =           0.0000
               GW ET     =           0.0000                 GW ET     =           0.0000
     SURFACE LEAKAGE     =           0.0000       SURFACE LEAKAGE     =           0.0000
           AG WELLS      =  1436699136.0000             AG WELLS      =         600.0000

               TOTAL OUT =  2358993408.0000                 TOTAL OUT =         612.0291

                IN - OUT =        7936.0000                  IN - OUT =       6.1035E-05

     PERCENT DISCREPANCY =           0.00         PERCENT DISCREPANCY =           0.00






         TIME SUMMARY AT END OF TIME STEP    1 IN STRESS PERIOD    8
                    SECONDS     MINUTES      HOURS       DAYS        YEARS
                    -----------------------------------------------------------
   TIME STEP LENGTH  87667.      1461.1      24.352      1.0147     2.77799E-03
 STRESS PERIOD TIME  87667.      1461.1      24.352      1.0147     2.77799E-03
         TOTAL TIME 1.59541E+07 2.65901E+05  4431.7      184.65     0.50555    
1
 
 SOLVING FOR HEAD 
                                                   Max.-Head-Change                         Max.-Flux-Residual
  Residual-Control   Outer-Iter.   Inner-Iter.     Column Row Layer    Maximum-Head-Change  Column Row Layer    Maximum-Flux-Residual          L2-NORM 
          0                 1           2             4    7     1       0.2208506116E+00       4    7    1         0.1165479486E+02      0.2304618985E+02
          0                 2           2             4    7     1      -0.5302901567E-01       4    7    1        -0.2857775241E+01      0.6324090300E+01
          0                 3           2             4    7     1       0.3429861790E-01       4    7    1         0.1892282042E+01      0.4596618671E+01
          0                 4           2             4    7     1      -0.1364781882E-02       4    7    1        -0.7739492817E-01      0.1921886618E+00
          0                 5           1             7   13     1       0.4126778299E-04       7   13    1         0.2365678033E-02      0.3512677386E-02

    ------------------------------------------------
       NWT REQUIRED            5 OUTER ITERATIONS 
       AND A TOTAL OF          9 INNER ITERATIONS.
    ------------------------------------------------

 NO OUTPUT CONTROL FOR STRESS PERIOD    8   TIME STEP    2
 
 SOLVING FOR HEAD 
                                                   Max.-Head-Change                         Max.-Flux-Residual
  Residual-Control   Outer-Iter.   Inner-Iter.     Column Row Layer    Maximum-Head-Change  Column Row Layer    Maximum-Flux-Residual          L2-NORM 
          0                 1           2             4    7     1       0.3492857026E+00       4    7    1         0.1832436171E+02      0.3889654273E+02
          0                 2           2             5    8     1      -0.2280819627E+00       5    8    1        -0.1269968705E+02      0.2271821397E+02
          0                 3           2             5    8     1      -0.8532706599E-01       5    8    1        -0.4726233931E+01      0.1006476478E+02
          0                 4           2             4    6     1      -0.3997138201E-01       4    6    1        -0.2184782211E+01      0.4212942700E+01
          0                 5           2             4    6     1      -0.1897568652E-01       4    6    1        -0.1037261576E+01      0.1969614261E+01
          0                 6           2             4    6     1      -0.9007413963E-02       4    6    1        -0.4924081802E+00      0.9252718648E+00
          0                 7           2             4    6     1      -0.4275167236E-02       4    6    1        -0.2337294944E+00      0.4349027359E+00
          0                 8           2             4    6     1      -0.2028876977E-02       4    6    1        -0.1109307827E+00      0.2045270914E+00
          0                 9           2             4    6     1      -0.9627366403E-03       4    6    1        -0.5264294670E-01      0.9623308287E-01
          0                10           2             4    6     1      -0.4567812712E-03       4    6    1        -0.2497913790E-01      0.4529957154E-01
                                                   Max.-Head-Change                         Max.-Flux-Residual
  Residual-Control   Outer-Iter.   Inner-Iter.     Column Row Layer    Maximum-Head-Change  Column Row Layer    Maximum-Flux-Residual          L2-NORM 
          0                11           2             4    6     1      -0.2166996068E-03       4    6    1        -0.1185123710E-01      0.2133253569E-01
          0                12           1             4    6     1      -0.1027916110E-03       4    6    1        -0.5622105416E-02      0.1004970699E-01
          0                13           1             4    6     1      -0.4875351988E-04       4    6    1        -0.2666754804E-02      0.4736002507E-02

    ------------------------------------------------
       NWT REQUIRED           13 OUTER ITERATIONS 
       AND A TOTAL OF         24 INNER ITERATIONS.
    ------------------------------------------------

 NO OUTPUT CONTROL FOR STRESS PERIOD    8   TIME STEP    3
 
 SOLVING FOR HEAD 
                                                   Max.-Head-Change                         Max.-Flux-Residual
  Residual-Control   Outer-Iter.   Inner-Iter.     Column Row Layer    Maximum-Head-Change  Column Row Layer    Maximum-Flux-Residual          L2-NORM 
          0                 1           2             4    7     1       0.5594861767E+00       4    7    1         0.2936783133E+02      0.6103263169E+02
          0                 2           2             5    8     1      -0.1687095540E+01       5    8    1        -0.9299023542E+02      0.2183083819E+03
          0                 3           2             4    7     1      -0.5278547081E+00       4    7    1        -0.2846970085E+02      0.5789595180E+02
          0                 4           2             4    7     1       0.3594597136E-01       4    7    1         0.1992864133E+01      0.4052891645E+01
          0                 5           2             4    7     1      -0.1430682711E-02       4    7    1        -0.8152568455E-01      0.1657976193E+00
          0                 6           1             4    7     1       0.1765400264E-04       4    7    1         0.1033732997E-02      0.2106067567E-02

    ------------------------------------------------
       NWT REQUIRED            6 OUTER ITERATIONS 
       AND A TOTAL OF         11 INNER ITERATIONS.
    ------------------------------------------------

 NO OUTPUT CONTROL FOR STRESS PERIOD    8   TIME STEP    4
 
 SOLVING FOR HEAD 
                                                   Max.-Head-Change                         Max.-Flux-Residual
  Residual-Control   Outer-Iter.   Inner-Iter.     Column Row Layer    Maximum-Head-Change  Column Row Layer    Maximum-Flux-Residual          L2-NORM 
          0                 1           2             4    7     1       0.2195350094E+00       4    6    1         0.1157501469E+02      0.2671088187E+02
          0                 2           2             4    7     1      -0.5290063699E-01       4    6    1        -0.2849741243E+01      0.6706600898E+01
          0                 3           2             4    7     1       0.3428982450E-01       4    6    1         0.1891721269E+01      0.4623271940E+01
          0                 4           2             4    7     1      -0.1364431451E-02       4    6    1        -0.7736501945E-01      0.1931916063E+00
          0                 5           1             7   13     1       0.4047481240E-04       7   13    1         0.2320276323E-02      0.3490961618E-02

    ------------------------------------------------
       NWT REQUIRED            5 OUTER ITERATIONS 
       AND A TOTAL OF          9 INNER ITERATIONS.
    ------------------------------------------------

 OUTPUT CONTROL FOR STRESS PERIOD    8   TIME STEP    5
    PRINT BUDGET
    SAVE BUDGET
 UBDSV1 SAVING "         STORAGE" ON UNIT 102 AT TIME STEP  5, STRESS PERIOD   8
 UBDSV2 SAVING "   CONSTANT HEAD" ON UNIT 102 AT TIME STEP  5, STRESS PERIOD   8
 UBDSV1 SAVING "FLOW RIGHT FACE " ON UNIT 102 AT TIME STEP  5, STRESS PERIOD   8
 UBDSV1 SAVING "FLOW FRONT FACE " ON UNIT 102 AT TIME STEP  5, STRESS PERIOD   8

  HEAD DEP BOUNDS   PERIOD    8   STEP     5
 BOUNDARY      1   LAYER   1   ROW    13   COL     1   RATE   -0.288402    
 BOUNDARY      2   LAYER   1   ROW    14   COL     9   RATE    0.287954    



 STREAM LISTING     PERIOD      8   STEP        5

 LAYER ROW COL. STREAM  RCH.  FLOW INTO     FLOW TO   FLOW OUT OF   OVRLND.     DIRECT     STREAM       STREAM     STREAM     STREAM   STREAMBED  STREAMBED
                SEG.NO.  NO.  STRM. RCH.    AQUIFER    STRM. RCH.    RUNOFF     PRECIP       ET          HEAD       DEPTH      WIDTH   CONDCTNC.   GRADIENT

   1    1    1     1     1    2.8125E+01  2.5915E-01   2.7866E+01  0.000E+00  0.000E+00  0.000E+00  1.09427E+03  1.223E+00  1.364E+01  6.137E-02  1.408E+00
   1    2    2     1     2    2.7866E+01  4.0087E-01   2.7465E+01  0.000E+00  0.000E+00  0.000E+00  1.08928E+03  1.218E+00  1.358E+01  9.503E-02  1.406E+00
   1    3    3     1     3    2.7465E+01  3.4143E-01   2.7124E+01  0.000E+00  0.000E+00  0.000E+00  1.08363E+03  1.213E+00  1.351E+01  8.104E-02  1.404E+00
   1    3    4     1     4    2.7124E+01  3.1403E-01   2.6810E+01  0.000E+00  0.000E+00  0.000E+00  1.07862E+03  1.209E+00  1.344E+01  7.461E-02  1.403E+00
   1    4    5     2     1    2.4810E+01  3.2739E-01   2.4482E+01  0.000E+00  0.000E+00  0.000E+00  1.07313E+03  1.197E+00  1.200E+01  7.800E-02  1.399E+00
   1    5    6     2     2    2.4482E+01  2.5133E-01   2.4231E+01  0.000E+00  0.000E+00  0.000E+00  1.06770E+03  1.189E+00  1.200E+01  6.000E-02  1.396E+00
   1    6    6     2     3    2.4231E+01  2.5089E-01   2.3980E+01  0.000E+00  0.000E+00  0.000E+00  1.06297E+03  1.181E+00  1.200E+01  6.000E-02  1.394E+00
   1    7    6     2     4    2.3980E+01  2.5044E-01   2.3730E+01  0.000E+00  0.000E+00  0.000E+00  1.05825E+03  1.174E+00  1.200E+01  6.000E-02  1.391E+00
   1    8    6     2     5    2.3730E+01  2.5000E-01   2.3480E+01  0.000E+00  0.000E+00  0.000E+00  1.05353E+03  1.167E+00  1.200E+01  6.000E-02  1.389E+00
   1    3    5     3     1    2.0000E+00  2.8252E-01   1.7175E+00  0.000E+00  0.000E+00  0.000E+00  1.07555E+03  1.909E+00  9.636E+00  7.227E-02  1.955E+00
   1    3    6     3     2    1.7175E+00  2.4905E-01   1.4684E+00  0.000E+00  0.000E+00  0.000E+00  1.07264E+03  1.727E+00  8.909E+00  6.682E-02  1.864E+00
   1    3    7     3     3    1.4684E+00  1.9718E-01   1.2712E+00  0.000E+00  0.000E+00  0.000E+00  1.06987E+03  1.555E+00  8.218E+00  5.547E-02  1.777E+00
   1    4    8     3     4    1.2712E+00  2.2567E-01   1.0456E+00  0.000E+00  0.000E+00  0.000E+00  1.06682E+03  1.364E+00  7.455E+00  6.709E-02  1.682E+00
   1    5    8     3     5    1.0456E+00  1.5790E-01   8.8768E-01  0.000E+00  0.000E+00  0.000E+00  1.06362E+03  1.164E+00  6.655E+00  4.991E-02  1.582E+00
   1    6    8     3     6    8.8768E-01  5.5980E-02   8.3170E-01  0.000E+00  0.000E+00  0.000E+00  1.06158E+03  1.036E+00  6.145E+00  1.844E-02  1.518E+00
   1    5   10     4     1    1.0000E+01  9.0919E-02   9.9091E+00  0.000E+00  0.000E+00  0.000E+00  1.07836E+03  6.368E-01  1.000E+01  2.500E-02  1.212E+00
   1    5    9     4     2    9.9091E+00  1.8158E-01   9.7275E+00  0.000E+00  0.000E+00  0.000E+00  1.07154E+03  6.315E-01  1.000E+01  5.000E-02  1.211E+00
   1    6    8     4     3    9.7275E+00  1.2689E-01   9.6006E+00  0.000E+00  0.000E+00  0.000E+00  1.06381E+03  6.256E-01  1.000E+01  3.500E-02  1.209E+00
   1    6    8     5     1    1.0432E+01  2.2686E-01   1.0205E+01  0.000E+00  0.000E+00  0.000E+00  1.05868E+03  6.790E-01  1.542E+01  6.166E-02  1.226E+00
   1    7    7     5     2    1.0205E+01  2.7894E-01   9.9265E+00  0.000E+00  0.000E+00  0.000E+00  1.05417E+03  6.732E-01  1.519E+01  7.594E-02  1.224E+00
   1    8    7     5     3    9.9265E+00  1.9221E-01   9.7343E+00  0.000E+00  0.000E+00  0.000E+00  1.04992E+03  6.676E-01  1.497E+01  5.241E-02  1.223E+00
   1    8    6     5     4    9.7343E+00  1.3577E-01   9.5985E+00  0.000E+00  0.000E+00  0.000E+00  1.04691E+03  6.637E-01  1.482E+01  3.706E-02  1.221E+00
   1    9    6     6     1    1.2771E+01  2.2870E-01   1.2543E+01  0.000E+00  0.000E+00  0.000E+00  1.04354E+03  8.116E-01  1.200E+01  6.000E-02  1.271E+00
   1   10    7     6     2    1.2543E+01  2.2817E-01   1.2314E+01  0.000E+00  0.000E+00  0.000E+00  1.03898E+03  8.028E-01  1.200E+01  6.000E-02  1.268E+00
   1   11    7     6     3    1.2314E+01  2.2764E-01   1.2087E+01  0.000E+00  0.000E+00  0.000E+00  1.03443E+03  7.940E-01  1.200E+01  6.000E-02  1.265E+00
   1   12    7     6     4    1.2087E+01  2.2710E-01   1.1860E+01  0.000E+00  0.000E+00  0.000E+00  1.02988E+03  7.850E-01  1.200E+01  6.000E-02  1.262E+00
   1   13    7     6     5    1.1860E+01 -3.6985E-02   1.1897E+01  0.000E+00  0.000E+00  0.000E+00  1.02669E+03  7.813E-01  1.200E+01  2.400E-01 -5.137E-02
   1   14    9     7     1    1.5000E+02  1.3681E+00   1.4863E+02  0.000E+00  0.000E+00  0.000E+00  1.03987E+03  2.288E+00  5.529E+01  5.593E-01  8.153E-01
   1   13    8     7     2    1.4863E+02  1.9165E+00   1.4672E+02  0.000E+00  0.000E+00  0.000E+00  1.03478E+03  2.279E+00  5.526E+01  6.148E-01  1.039E+00
   1   13    7     7     3    1.4672E+02  1.5883E+00   1.4513E+02  0.000E+00  0.000E+00  0.000E+00  1.02969E+03  2.270E+00  5.521E+01  5.584E-01  9.481E-01
   1   13    6     8     1    1.5702E+02  9.5408E-01   1.5607E+02  0.000E+00  0.000E+00  0.000E+00  1.02474E+03  2.862E+00  4.150E+01  4.229E-01  7.519E-01
   1   13    5     8     2    1.5607E+02  2.1404E-01   1.5586E+02  0.000E+00  0.000E+00  0.000E+00  1.01848E+03  2.858E+00  4.145E+01  4.223E-01  1.689E-01
   1   13    4     8     3    1.5586E+02 -2.3675E+00   1.5822E+02  0.000E+00  0.000E+00  0.000E+00  1.01224E+03  2.866E+00  4.155E+01  4.234E+00 -1.864E-01
   1   13    3     8     4    1.5822E+02 -3.6708E+00   1.6189E+02  0.000E+00  0.000E+00  0.000E+00  1.00601E+03  2.886E+00  4.185E+01  4.265E+00 -2.869E-01
   1   13    2     8     5    1.6189E+02 -2.6812E+00   1.6458E+02  0.000E+00  0.000E+00  0.000E+00  9.99783E+02  2.908E+00  4.216E+01  4.296E+00 -2.080E-01
   1   13    1     8     6    1.6458E+02 -2.0506E+00   1.6663E+02  0.000E+00  0.000E+00  0.000E+00  9.94798E+02  2.923E+00  4.239E+01  2.592E+00 -2.637E-01
   1    8    6     9     1    2.0307E+01  0.0000E+00   2.0307E+01  0.000E+00  0.000E+00  0.000E+00  1.08222E+03  3.466E+00  4.000E+00  0.000E+00  2.155E+00
   1    8    5     9     2    2.0307E+01  0.0000E+00   2.0307E+01  0.000E+00  0.000E+00  0.000E+00  1.08172E+03  3.466E+00  4.000E+00  0.000E+00  2.155E+00



 UBDSV3 SAVING "           GW ET" ON UNIT  61 AT TIME STEP  5, STRESS PERIOD   8
 UBDSV3 SAVING "    UZF RECHARGE" ON UNIT  61 AT TIME STEP  5, STRESS PERIOD   8
 UBDSV3 SAVING " SURFACE LEAKAGE" ON UNIT  61 AT TIME STEP  5, STRESS PERIOD   8
 UBDSV3 SAVING "       HORT+DUNN" ON UNIT  61 AT TIME STEP  5, STRESS PERIOD   8
 UBDSV3 SAVING "  STORAGE CHANGE" ON UNIT  61 AT TIME STEP  5, STRESS PERIOD   8


UNSATURATED ZONE PACKAGE VOLUMETRIC BUDGET FOR  TIME STEP     5 STRESS PERIOD    8
  ------------------------------------------------------------------------------



     CUMULATIVE VOLUMES      L**3       RATES FOR THIS TIME STEP      L**3/T
     ------------------                 ------------------------

           IN:                                      IN:
           ---                                      ---
        INFILTRATION =  1608875616.9739          INFILTRATION =          21.1548

          OUT:                                     OUT:
          ----                                     ----
              UZF ET =   128796328.3786                UZF ET =          61.0004
        UZF RECHARGE =   515749299.4375          UZF RECHARGE =       0.0000E+00

            IN - OUT =   964329989.1578              IN - OUT =         -39.8456

          STORAGE:                                 STORAGE:
          --------                                 --------
      STORAGE CHANGE =   964504265.3454        STORAGE CHANGE =         -39.8487

 PERCENT DISCREPANCY IS DIFFERENCE BETWEEN IN-OUT MINUS CHANGE IN STORAGE
 DIVIDED BY THE AVERAGE OF IN AND OUT TIMES 100

 PERCENT DISCREPANCY =          -0.00     PERCENT DISCREPANCY =           0.01






 

            AG WELLS      PERIOD    8   STEP   5
 AG WELL      1   LAYER   1   ROW     6   COL     4   RATE     0.00000    
 AG WELL      2   LAYER   1   ROW     6   COL     5   RATE     0.00000    
 AG WELL      3   LAYER   1   ROW     7   COL     4   RATE     0.00000    
 AG WELL      4   LAYER   1   ROW     7   COL     5   RATE     0.00000    
 AG WELL      5   LAYER   1   ROW     8   COL     4   RATE     0.00000    
 AG WELL      6   LAYER   1   ROW     8   COL     5   RATE     0.00000    
 
 

   DIVERSION SEGMENTS     PERIOD    8   STEP   5
 SEGMENT      9   RATE     20.3069    
 
 

        SW IRRIGATION     PERIOD    8   STEP   5
 SEGMENT      9   ROW     6   COL     4   RATE     3.38455    
 SEGMENT      9   ROW     6   COL     5   RATE     3.38455    
 SEGMENT      9   ROW     7   COL     4   RATE     3.38455    
 SEGMENT      9   ROW     7   COL     5   RATE     3.38455    
 SEGMENT      9   ROW     8   COL     4   RATE     3.38455    
 SEGMENT      9   ROW     8   COL     5   RATE     3.38455    
 
 

        GW IRRIGATION     PERIOD    8   STEP   5
 AG WELL      1   ROW     6   COL     4   RATE     0.00000    
 AG WELL      2   ROW     6   COL     5   RATE     0.00000    
 AG WELL      3   ROW     7   COL     4   RATE     0.00000    
 AG WELL      4   ROW     7   COL     5   RATE     0.00000    
 AG WELL      5   ROW     8   COL     4   RATE     0.00000    
 AG WELL      6   ROW     8   COL     5   RATE     0.00000    
 
1
  VOLUMETRIC BUDGET FOR AGRICULTURAL FIELDS AT  END OF TIME STEP    5, STRESS PERIOD   8
  ------------------------------------------------------------------------------

     CUMULATIVE VOLUMES      L**3       RATES FOR THIS TIME STEP      L**3/T
     ------------------                 ------------------------

           IN:                                      IN:
           ---                                      ---
               AG WELLS  =  1497660416.0000                 AG WELLS  =           0.0000
      DIVERSION SEGMENTS =    97402048.0000        DIVERSION SEGMENTS =          20.3069
           GW IRRIGATION =           0.0000             GW IRRIGATION =           0.0000
           SW IRRIGATION =           0.0000             SW IRRIGATION =           0.0000
        SYSTEM LOSSES GW =           0.0000          SYSTEM LOSSES GW =           0.0000
        SYSTEM LOSSES SW =           0.0000          SYSTEM LOSSES SW =           0.0000

                TOTAL IN =  1595062528.0000                  TOTAL IN =          20.3069

          OUT:                                     OUT:
          ----                                     ----
               AG WELLS  =           0.0000                 AG WELLS  =           0.0000
      DIVERSION SEGMENTS =           0.0000        DIVERSION SEGMENTS =           0.0000
           GW IRRIGATION =  1497660416.0000             GW IRRIGATION =           0.0000
           SW IRRIGATION =    97403952.0000             SW IRRIGATION =          20.3073
        SYSTEM LOSSES GW =           0.0000          SYSTEM LOSSES GW =           0.0000
        SYSTEM LOSSES SW =           0.0000          SYSTEM LOSSES SW =           0.0000

               TOTAL OUT =  1595064320.0000                 TOTAL OUT =          20.3073

                IN - OUT =       -1792.0000                  IN - OUT =      -4.0627E-04

     PERCENT DISCREPANCY =          -0.00         PERCENT DISCREPANCY =          -0.00



1
  VOLUMETRIC BUDGET FOR ENTIRE MODEL AT END OF TIME STEP    5, STRESS PERIOD   8
  ------------------------------------------------------------------------------

     CUMULATIVE VOLUMES      L**3       RATES FOR THIS TIME STEP      L**3/T
     ------------------                 ------------------------

           IN:                                      IN:
           ---                                      ---
             STORAGE     =  1720980352.0000               STORAGE     =          58.4002
       CONSTANT HEAD     =           0.0000         CONSTANT HEAD     =           0.0000
     HEAD DEP BOUNDS     =     4693684.0000       HEAD DEP BOUNDS     =           0.2880
      STREAM LEAKAGE     =   193256976.0000        STREAM LEAKAGE     =          11.9995
        UZF RECHARGE     =   515749248.0000          UZF RECHARGE     =           0.0000
               GW ET     =           0.0000                 GW ET     =           0.0000
     SURFACE LEAKAGE     =           0.0000       SURFACE LEAKAGE     =           0.0000
           AG WELLS      =           0.0000             AG WELLS      =           0.0000

                TOTAL IN =  2434680320.0000                  TOTAL IN =          70.6877

          OUT:                                     OUT:
          ----                                     ----
             STORAGE     =   764785280.0000               STORAGE     =          59.5922
       CONSTANT HEAD     =           0.0000         CONSTANT HEAD     =           0.0000
     HEAD DEP BOUNDS     =     4703251.5000       HEAD DEP BOUNDS     =           0.2884
      STREAM LEAKAGE     =   167524048.0000        STREAM LEAKAGE     =          10.8070
        UZF RECHARGE     =           0.0000          UZF RECHARGE     =           0.0000
               GW ET     =           0.0000                 GW ET     =           0.0000
     SURFACE LEAKAGE     =           0.0000       SURFACE LEAKAGE     =           0.0000
           AG WELLS      =  1497660416.0000             AG WELLS      =           0.0000

               TOTAL OUT =  2434672896.0000                 TOTAL OUT =          70.6876

                IN - OUT =        7424.0000                  IN - OUT =       2.2888E-05

     PERCENT DISCREPANCY =           0.00         PERCENT DISCREPANCY =           0.00






         TIME SUMMARY AT END OF TIME STEP    5 IN STRESS PERIOD    8
                    SECONDS     MINUTES      HOURS       DAYS        YEARS
                    -----------------------------------------------------------
   TIME STEP LENGTH  87667.      1461.1      24.352      1.0147     2.77799E-03
 STRESS PERIOD TIME 4.38333E+05  7305.6      121.76      5.0733     1.38899E-02
         TOTAL TIME 1.63048E+07 2.71746E+05  4529.1      188.71     0.51667    
1
 
 SOLVING FOR HEAD 
                                                   Max.-Head-Change                         Max.-Flux-Residual
  Residual-Control   Outer-Iter.   Inner-Iter.     Column Row Layer    Maximum-Head-Change  Column Row Layer    Maximum-Flux-Residual          L2-NORM 
          0                 1           2             4    6     1       0.4526243387E+00       4    6    1         0.2413653527E+02      0.4768545821E+02
          0                 2           2             4    8     1      -0.1862261909E+00       4    8    1        -0.1026695001E+02      0.1871819076E+02
          0                 3           2             4    8     1      -0.8337208118E-01       4    8    1        -0.4583230536E+01      0.8547933315E+01
          0                 4           2             4    8     1      -0.3745446168E-01       4    8    1        -0.2052712665E+01      0.3969381100E+01
          0                 5           2             4    8     1      -0.1689841588E-01       4    8    1        -0.9225887804E+00      0.1879765166E+01
          0                 6           2             5    8     1      -0.8751317277E-02       5    8    1        -0.4841767782E+00      0.9140180843E+00
          0                 7           2             5    8     1      -0.5248261081E-02       5    8    1        -0.2921063792E+00      0.4590505334E+00
          0                 8           2             5    8     1      -0.3131593175E-02       5    8    1        -0.1750546092E+00      0.2388107172E+00
          0                 9           2             5    8     1      -0.1861688343E-02       5    8    1        -0.1043988170E+00      0.1284771449E+00
          0                10           2             5    8     1      -0.1103719358E-02       5    8    1        -0.6203937942E-01      0.7109527088E-01
                                                   Max.-Head-Change                         Max.-Flux-Residual
  Residual-Control   Outer-Iter.   Inner-Iter.     Column Row Layer    Maximum-Head-Change  Column Row Layer    Maximum-Flux-Residual          L2-NORM 
          0                11           2             5    8     1      -0.6530164302E-03       5    8    1        -0.3676980555E-01      0.4018620554E-01
          0                12           1             5    8     1      -0.3857679210E-03       5    8    1        -0.2175002017E-01      0.2305161833E-01
          0                13           1             5    8     1      -0.2276299233E-03       5    8    1        -0.1284656899E-01      0.1335047665E-01
          0                14           1             5    8     1      -0.1342011738E-03       5    8    1        -0.7579362051E-02      0.7778749498E-02
          0                15           1             5    8     1      -0.7906759333E-04       5    8    1        -0.4468012493E-02      0.4549083474E-02

    ------------------------------------------------
       NWT REQUIRED           15 OUTER ITERATIONS 
       AND A TOTAL OF         26 INNER ITERATIONS.
    ------------------------------------------------

 NO OUTPUT CONTROL FOR STRESS PERIOD    8   TIME STEP    6
 
 SOLVING FOR HEAD 
                                                   Max.-Head-Change                         Max.-Flux-Residual
  Residual-Control   Outer-Iter.   Inner-Iter.     Column Row Layer    Maximum-Head-Change  Column Row Layer    Maximum-Flux-Residual          L2-NORM 
          0                 1           2             5    8     1       0.2046151100E+01       5    8    1         0.1113789891E+03      0.1452744642E+03
          0                 2           2             4    7     1      -0.1632154269E+01       4    6    1        -0.8837537012E+02      0.1780313810E+03
          0                 3           2             5    6     1      -0.8196543512E+00       5    6    1        -0.4540949984E+02      0.8459340786E+02
          0                 4           2             4    8     1      -0.4394408012E+00       4    8    1        -0.2430754329E+02      0.3405180359E+02
          0                 5           2             4    8     1      -0.2654193012E+00       4    8    1        -0.1467013703E+02      0.1696340204E+02
          0                 6           2             5    8     1      -0.8926748418E-01       5    8    1        -0.5065869990E+01      0.5075193077E+01
          0                 7           2             5    8     1      -0.5239488034E-01       5    8    1        -0.2970880992E+01      0.2970919779E+01
          0                 8           2             5    8     1      -0.3075269808E-01       5    8    1        -0.1743789001E+01      0.1743792989E+01
          0                 9           2             5    8     1      -0.1804994114E-01       5    8    1        -0.1023481735E+01      0.1023484178E+01
          0                10           2             5    8     1      -0.1059414990E-01       5    8    1        -0.6007105687E+00      0.6007120023E+00
                                                   Max.-Head-Change                         Max.-Flux-Residual
  Residual-Control   Outer-Iter.   Inner-Iter.     Column Row Layer    Maximum-Head-Change  Column Row Layer    Maximum-Flux-Residual          L2-NORM 
          0                11           1             5    8     1      -0.6218046150E-02       5    8    1        -0.3525724673E+00      0.3525733089E+00
          0                12           1             5    8     1      -0.3649548368E-02       5    8    1        -0.2069327067E+00      0.2069332007E+00
          0                13           1             5    8     1      -0.2142010396E-02       5    8    1        -0.1214527370E+00      0.1214530269E+00
          0                14           1             5    8     1      -0.1257190936E-02       5    8    1        -0.7128247689E-01      0.7128264705E-01
          0                15           1             5    8     1      -0.7378670120E-03       5    8    1        -0.4183651475E-01      0.4183661462E-01
          0                16           1             5    8     1      -0.4330640332E-03       5    8    1        -0.2455417880E-01      0.2455423741E-01
          0                17           1             5    8     1      -0.2541694196E-03       5    8    1        -0.1441094654E-01      0.1441098094E-01
          0                18           1             5    8     1      -0.1491734829E-03       5    8    1        -0.8457787377E-02      0.8457807569E-02
          0                19           1             5    8     1      -0.8755019344E-04       5    8    1        -0.4963844563E-02      0.4963856411E-02

    ------------------------------------------------
       NWT REQUIRED           19 OUTER ITERATIONS 
       AND A TOTAL OF         29 INNER ITERATIONS.
    ------------------------------------------------

 NO OUTPUT CONTROL FOR STRESS PERIOD    8   TIME STEP    7
 
 SOLVING FOR HEAD 
                                                   Max.-Head-Change                         Max.-Flux-Residual
  Residual-Control   Outer-Iter.   Inner-Iter.     Column Row Layer    Maximum-Head-Change  Column Row Layer    Maximum-Flux-Residual          L2-NORM 
          0                 1           2             4    8     1       0.2020404757E+01       4    8    1         0.1074205488E+03      0.2104736067E+03
          0                 2           2             4    8     1       0.1182158029E+01       4    8    1         0.6282908418E+02      0.1220931264E+03
          0                 3           2             4    8     1       0.7424344233E+00       4    8    1         0.3944737701E+02      0.7719054228E+02
          0                 4           2             4    8     1       0.4463483491E+00       4    8    1         0.2371322364E+02      0.4635404432E+02
          0                 5           2             4    8     1       0.2683782902E+00       4    8    1         0.1425670215E+02      0.2785019015E+02
          0                 6           2             4    8     1       0.1613913680E+00       4    8    1         0.8572418248E+01      0.1674039623E+02
          0                 7           2             4    8     1       0.9706740407E-01       4    8    1         0.5155209514E+01      0.1006680128E+02
          0                 8           2             4    8     1       0.5838842414E-01       4    8    1         0.3100622726E+01      0.6056135784E+01
          0                 9           2             4    8     1       0.3512690887E-01       4    8    1         0.1865139762E+01      0.3644755206E+01
          0                10           2             4    8     1       0.2113548929E-01       4    8    1         0.1122104734E+01      0.2194321543E+01
                                                   Max.-Head-Change                         Max.-Flux-Residual
  Residual-Control   Outer-Iter.   Inner-Iter.     Column Row Layer    Maximum-Head-Change  Column Row Layer    Maximum-Flux-Residual          L2-NORM 
          0                11           2             4    8     1       0.1271870969E-01       4    8    1         0.6751719235E+00      0.1321545410E+01
          0                12           2             4    8     1       0.7654754286E-02       4    8    1         0.4063062790E+00      0.7961684478E+00
          0                13           2             4    8     1       0.4607612104E-02       4    8    1         0.2445400328E+00      0.4798001519E+00
          0                14           2             4    8     1       0.2773805333E-02       4    8    1         0.1471982626E+00      0.2892279328E+00
          0                15           2             4    8     1       0.1670053502E-02       4    8    1         0.8861569506E-01      0.1743961123E+00
          0                16           2             4    8     1       0.1005629563E-02       4    8    1         0.5335471277E-01      0.1051823206E+00
          0                17           2             4    8     1       0.6056166583E-03       4    8    1         0.3212831901E-01      0.6345285042E-01
          0                18           2             4    8     1       0.3647611800E-03       4    8    1         0.1934885152E-01      0.3828735772E-01
          0                19           2             4    8     1       0.2197198597E-03       4    8    1         0.1165395234E-01      0.2310730658E-01
          0                20           2             4    8     1       0.1323667180E-03       4    8    1         0.7020063236E-02      0.1394848634E-01
          0                21           1             4    8     1       0.7975093401E-04       4    8    1         0.4229192348E-02      0.8421377902E-02

    ------------------------------------------------
       NWT REQUIRED           21 OUTER ITERATIONS 
       AND A TOTAL OF         41 INNER ITERATIONS.
    ------------------------------------------------

 NO OUTPUT CONTROL FOR STRESS PERIOD    8   TIME STEP    8
 
 SOLVING FOR HEAD 
                                                   Max.-Head-Change                         Max.-Flux-Residual
  Residual-Control   Outer-Iter.   Inner-Iter.     Column Row Layer    Maximum-Head-Change  Column Row Layer    Maximum-Flux-Residual          L2-NORM 
          0                 1           2             4    7     1       0.2254455801E+01       4    7    1         0.1178600405E+03      0.2705671293E+03
          0                 2           2             4    7     1       0.1075801351E+01       4    7    1         0.5630354413E+02      0.1246181092E+03
          0                 3           2             4    7     1       0.6578486950E+00       4    7    1         0.3444698895E+02      0.7533464882E+02
          0                 4           2             4    7     1       0.4020618301E+00       4    7    1         0.2106266124E+02      0.4553968008E+02
          0                 5           2             4    7     1       0.2456105304E+00       4    7    1         0.1287213479E+02      0.2753267830E+02
          0                 6           2             4    7     1       0.1499689615E+00       4    7    1         0.7862784639E+01      0.1664712630E+02
          0                 7           2             4    7     1       0.9153090269E-01       4    7    1         0.4800691333E+01      0.1006612276E+02
          0                 8           2             4    7     1       0.5584145653E-01       4    7    1         0.2929843704E+01      0.6087164487E+01
          0                 9           2             4    7     1       0.3405478745E-01       4    7    1         0.1787347632E+01      0.3681253164E+01
          0                10           2             4    7     1       0.2076065913E-01       4    7    1         0.1089951766E+01      0.2226394446E+01
                                                   Max.-Head-Change                         Max.-Flux-Residual
  Residual-Control   Outer-Iter.   Inner-Iter.     Column Row Layer    Maximum-Head-Change  Column Row Layer    Maximum-Flux-Residual          L2-NORM 
          0                11           2             4    7     1       0.1265185120E-01       4    7    1         0.6644284693E+00      0.1346580567E+01
          0                12           2             4    7     1       0.7707701223E-02       4    7    1         0.4048930103E+00      0.8144876852E+00
          0                13           2             4    7     1       0.4694192612E-02       4    7    1         0.2466557511E+00      0.4926708955E+00
          0                14           2             4    7     1       0.2858045249E-02       4    7    1         0.1502133236E+00      0.2980216932E+00
          0                15           2             4    7     1       0.1739626281E-02       4    7    1         0.9145317230E-01      0.1802834810E+00
          0                16           2             4    7     1       0.1058589556E-02       4    7    1         0.5566326236E-01      0.1090635662E+00
          0                17           2             4    7     1       0.6440058338E-03       4    7    1         0.3387069986E-01      0.6598084586E-01
          0                18           2             4    7     1       0.3916949622E-03       4    7    1         0.2060492490E-01      0.3991804965E-01
          0                19           2             4    7     1       0.2381810953E-03       4    7    1         0.1253183434E-01      0.2415087771E-01
          0                20           2             4    7     1       0.1448013315E-03       4    7    1         0.7620089764E-02      0.1461193392E-01
          0                21           1             4    7     1       0.8801331356E-04       4    7    1         0.4632465243E-02      0.8840823957E-02

    ------------------------------------------------
       NWT REQUIRED           21 OUTER ITERATIONS 
       AND A TOTAL OF         41 INNER ITERATIONS.
    ------------------------------------------------

 NO OUTPUT CONTROL FOR STRESS PERIOD    8   TIME STEP    9
 
 SOLVING FOR HEAD 
                                                   Max.-Head-Change                         Max.-Flux-Residual
  Residual-Control   Outer-Iter.   Inner-Iter.     Column Row Layer    Maximum-Head-Change  Column Row Layer    Maximum-Flux-Residual          L2-NORM 
          0                 1           2             4    7     1       0.2212066300E+01       4    7    1         0.1157829091E+03      0.2430855601E+03
          0                 2           2             5    8     1      -0.1694517063E+01       5    8    1        -0.9503828814E+02      0.1231901402E+03
          0                 3           2             5    6     1      -0.4333763315E+00       5    6    1        -0.2389566568E+02      0.5374163807E+02
          0                 4           2             5    6     1      -0.2625765624E+00       5    6    1        -0.1447235663E+02      0.3048863546E+02
          0                 5           2             5    6     1      -0.1591334828E+00       5    6    1        -0.8768815178E+01      0.1837457782E+02
          0                 6           2             5    6     1      -0.9646668247E-01       5    6    1        -0.5314353434E+01      0.1122274007E+02
          0                 7           2             5    6     1      -0.5849306371E-01       5    6    1        -0.3221593782E+01      0.6860713395E+01
          0                 8           2             5    6     1      -0.3547673200E-01       5    6    1        -0.1953451580E+01      0.4195406968E+01
          0                 9           2             5    6     1      -0.2152265503E-01       5    6    1        -0.1184805190E+01      0.2566299226E+01
          0                10           2             4    7     1      -0.1309048320E-01       5    6    1        -0.7187939092E+00      0.1570214697E+01
                                                   Max.-Head-Change                         Max.-Flux-Residual
  Residual-Control   Outer-Iter.   Inner-Iter.     Column Row Layer    Maximum-Head-Change  Column Row Layer    Maximum-Flux-Residual          L2-NORM 
          0                11           2             4    7     1      -0.8159911887E-02       4    7    1        -0.4384311022E+00      0.9609930415E+00
          0                12           2             4    7     1      -0.5081668463E-02       4    7    1        -0.2732627875E+00      0.5882777569E+00
          0                13           2             4    7     1      -0.3161905512E-02       4    7    1        -0.1701586586E+00      0.3601950073E+00
          0                14           2             4    7     1      -0.1965806802E-02       4    7    1        -0.1058649853E+00      0.2205863664E+00
          0                15           2             4    7     1      -0.1221257534E-02       4    7    1        -0.6581164652E-01      0.1351134300E+00
          0                16           2             4    7     1      -0.7581776151E-03       4    7    1        -0.4088181193E-01      0.8277341782E-01
          0                17           2             4    7     1      -0.4703841882E-03       4    7    1        -0.2537798047E-01      0.5071657020E-01
          0                18           2             4    7     1      -0.2916563929E-03       4    7    1        -0.1574360198E-01      0.3107921315E-01
          0                19           2             4    7     1      -0.1807360062E-03       4    7    1        -0.9760904454E-02      0.1904786232E-01
          0                20           1             4    7     1      -0.1119407455E-03       4    7    1        -0.6048283628E-02      0.1167545668E-01
          0                21           1             4    7     1      -0.6929735735E-04       4    7    1        -0.3745813523E-02      0.7157289439E-02

    ------------------------------------------------
       NWT REQUIRED           21 OUTER ITERATIONS 
       AND A TOTAL OF         40 INNER ITERATIONS.
    ------------------------------------------------

 OUTPUT CONTROL FOR STRESS PERIOD    8   TIME STEP   10
    PRINT BUDGET
    SAVE BUDGET
 UBDSV1 SAVING "         STORAGE" ON UNIT 102 AT TIME STEP 10, STRESS PERIOD   8
 UBDSV2 SAVING "   CONSTANT HEAD" ON UNIT 102 AT TIME STEP 10, STRESS PERIOD   8
 UBDSV1 SAVING "FLOW RIGHT FACE " ON UNIT 102 AT TIME STEP 10, STRESS PERIOD   8
 UBDSV1 SAVING "FLOW FRONT FACE " ON UNIT 102 AT TIME STEP 10, STRESS PERIOD   8

  HEAD DEP BOUNDS   PERIOD    8   STEP    10
 BOUNDARY      1   LAYER   1   ROW    13   COL     1   RATE   -0.288064    
 BOUNDARY      2   LAYER   1   ROW    14   COL     9   RATE    0.287957    



 STREAM LISTING     PERIOD      8   STEP       10

 LAYER ROW COL. STREAM  RCH.  FLOW INTO     FLOW TO   FLOW OUT OF   OVRLND.     DIRECT     STREAM       STREAM     STREAM     STREAM   STREAMBED  STREAMBED
                SEG.NO.  NO.  STRM. RCH.    AQUIFER    STRM. RCH.    RUNOFF     PRECIP       ET          HEAD       DEPTH      WIDTH   CONDCTNC.   GRADIENT

   1    1    1     1     1    2.8125E+01  2.5915E-01   2.7866E+01  0.000E+00  0.000E+00  0.000E+00  1.09427E+03  1.223E+00  1.364E+01  6.137E-02  1.408E+00
   1    2    2     1     2    2.7866E+01  4.0087E-01   2.7465E+01  0.000E+00  0.000E+00  0.000E+00  1.08928E+03  1.218E+00  1.358E+01  9.503E-02  1.406E+00
   1    3    3     1     3    2.7465E+01  3.4143E-01   2.7124E+01  0.000E+00  0.000E+00  0.000E+00  1.08363E+03  1.213E+00  1.351E+01  8.104E-02  1.404E+00
   1    3    4     1     4    2.7124E+01  3.1403E-01   2.6810E+01  0.000E+00  0.000E+00  0.000E+00  1.07862E+03  1.209E+00  1.344E+01  7.461E-02  1.403E+00
   1    4    5     2     1    2.4810E+01  3.2739E-01   2.4482E+01  0.000E+00  0.000E+00  0.000E+00  1.07313E+03  1.197E+00  1.200E+01  7.800E-02  1.399E+00
   1    5    6     2     2    2.4482E+01  2.5133E-01   2.4231E+01  0.000E+00  0.000E+00  0.000E+00  1.06770E+03  1.189E+00  1.200E+01  6.000E-02  1.396E+00
   1    6    6     2     3    2.4231E+01  2.5089E-01   2.3980E+01  0.000E+00  0.000E+00  0.000E+00  1.06297E+03  1.181E+00  1.200E+01  6.000E-02  1.394E+00
   1    7    6     2     4    2.3980E+01  2.5044E-01   2.3730E+01  0.000E+00  0.000E+00  0.000E+00  1.05825E+03  1.174E+00  1.200E+01  6.000E-02  1.391E+00
   1    8    6     2     5    2.3730E+01  2.5000E-01   2.3480E+01  0.000E+00  0.000E+00  0.000E+00  1.05353E+03  1.167E+00  1.200E+01  6.000E-02  1.389E+00
   1    3    5     3     1    2.0000E+00  2.8252E-01   1.7175E+00  0.000E+00  0.000E+00  0.000E+00  1.07555E+03  1.909E+00  9.636E+00  7.227E-02  1.955E+00
   1    3    6     3     2    1.7175E+00  2.4905E-01   1.4684E+00  0.000E+00  0.000E+00  0.000E+00  1.07264E+03  1.727E+00  8.909E+00  6.682E-02  1.864E+00
   1    3    7     3     3    1.4684E+00  1.9718E-01   1.2712E+00  0.000E+00  0.000E+00  0.000E+00  1.06987E+03  1.555E+00  8.218E+00  5.547E-02  1.777E+00
   1    4    8     3     4    1.2712E+00  2.2567E-01   1.0456E+00  0.000E+00  0.000E+00  0.000E+00  1.06682E+03  1.364E+00  7.455E+00  6.709E-02  1.682E+00
   1    5    8     3     5    1.0456E+00  1.5790E-01   8.8768E-01  0.000E+00  0.000E+00  0.000E+00  1.06362E+03  1.164E+00  6.655E+00  4.991E-02  1.582E+00
   1    6    8     3     6    8.8768E-01  5.5980E-02   8.3170E-01  0.000E+00  0.000E+00  0.000E+00  1.06158E+03  1.036E+00  6.145E+00  1.844E-02  1.518E+00
   1    5   10     4     1    1.0000E+01  9.0919E-02   9.9091E+00  0.000E+00  0.000E+00  0.000E+00  1.07836E+03  6.368E-01  1.000E+01  2.500E-02  1.212E+00
   1    5    9     4     2    9.9091E+00  1.8158E-01   9.7275E+00  0.000E+00  0.000E+00  0.000E+00  1.07154E+03  6.315E-01  1.000E+01  5.000E-02  1.211E+00
   1    6    8     4     3    9.7275E+00  1.2689E-01   9.6006E+00  0.000E+00  0.000E+00  0.000E+00  1.06381E+03  6.256E-01  1.000E+01  3.500E-02  1.209E+00
   1    6    8     5     1    1.0432E+01  2.2686E-01   1.0205E+01  0.000E+00  0.000E+00  0.000E+00  1.05868E+03  6.790E-01  1.542E+01  6.166E-02  1.226E+00
   1    7    7     5     2    1.0205E+01  2.7894E-01   9.9265E+00  0.000E+00  0.000E+00  0.000E+00  1.05417E+03  6.732E-01  1.519E+01  7.594E-02  1.224E+00
   1    8    7     5     3    9.9265E+00  1.9221E-01   9.7343E+00  0.000E+00  0.000E+00  0.000E+00  1.04992E+03  6.676E-01  1.497E+01  5.241E-02  1.223E+00
   1    8    6     5     4    9.7343E+00  1.3577E-01   9.5985E+00  0.000E+00  0.000E+00  0.000E+00  1.04691E+03  6.637E-01  1.482E+01  3.706E-02  1.221E+00
   1    9    6     6     1    9.5985E+00  2.2097E-01   9.3776E+00  0.000E+00  0.000E+00  0.000E+00  1.04341E+03  6.828E-01  1.200E+01  6.000E-02  1.228E+00
   1   10    7     6     2    9.3776E+00  2.2039E-01   9.1572E+00  0.000E+00  0.000E+00  0.000E+00  1.03885E+03  6.732E-01  1.200E+01  6.000E-02  1.224E+00
   1   11    7     6     3    9.1572E+00  2.1981E-01   8.9374E+00  0.000E+00  0.000E+00  0.000E+00  1.03430E+03  6.636E-01  1.200E+01  6.000E-02  1.221E+00
   1   12    7     6     4    8.9374E+00  2.1923E-01   8.7181E+00  0.000E+00  0.000E+00  0.000E+00  1.02974E+03  6.539E-01  1.200E+01  6.000E-02  1.218E+00
   1   13    7     6     5    8.7181E+00 -6.7549E-02   8.7857E+00  0.000E+00  0.000E+00  0.000E+00  1.02656E+03  6.505E-01  1.200E+01  2.400E-01 -9.382E-02
   1   14    9     7     1    1.5000E+02  1.3681E+00   1.4863E+02  0.000E+00  0.000E+00  0.000E+00  1.03987E+03  2.288E+00  5.529E+01  5.593E-01  8.154E-01
   1   13    8     7     2    1.4863E+02  1.9166E+00   1.4672E+02  0.000E+00  0.000E+00  0.000E+00  1.03478E+03  2.279E+00  5.526E+01  6.148E-01  1.039E+00
   1   13    7     7     3    1.4672E+02  1.5903E+00   1.4512E+02  0.000E+00  0.000E+00  0.000E+00  1.02969E+03  2.270E+00  5.521E+01  5.584E-01  9.493E-01
   1   13    6     8     1    1.5391E+02  9.4087E-01   1.5297E+02  0.000E+00  0.000E+00  0.000E+00  1.02472E+03  2.841E+00  4.119E+01  4.198E-01  7.471E-01
   1   13    5     8     2    1.5297E+02  2.0717E-01   1.5276E+02  0.000E+00  0.000E+00  0.000E+00  1.01846E+03  2.837E+00  4.114E+01  4.192E-01  1.647E-01
   1   13    4     8     3    1.5276E+02 -2.3757E+00   1.5514E+02  0.000E+00  0.000E+00  0.000E+00  1.01222E+03  2.844E+00  4.124E+01  4.203E+00 -1.884E-01
   1   13    3     8     4    1.5514E+02 -3.6799E+00   1.5882E+02  0.000E+00  0.000E+00  0.000E+00  1.00599E+03  2.865E+00  4.155E+01  4.234E+00 -2.897E-01
   1   13    2     8     5    1.5882E+02 -2.6938E+00   1.6151E+02  0.000E+00  0.000E+00  0.000E+00  9.99762E+02  2.887E+00  4.186E+01  4.266E+00 -2.105E-01
   1   13    1     8     6    1.6151E+02 -2.0658E+00   1.6358E+02  0.000E+00  0.000E+00  0.000E+00  9.94778E+02  2.903E+00  4.209E+01  2.574E+00 -2.676E-01
   1    8    6     9     1    2.3480E+01  0.0000E+00   2.3480E+01  0.000E+00  0.000E+00  0.000E+00  1.08253E+03  3.782E+00  4.000E+00  0.000E+00  2.261E+00
   1    8    5     9     2    2.3480E+01  0.0000E+00   2.3480E+01  0.000E+00  0.000E+00  0.000E+00  1.08203E+03  3.782E+00  4.000E+00  0.000E+00  2.261E+00



 UBDSV3 SAVING "           GW ET" ON UNIT  61 AT TIME STEP 10, STRESS PERIOD   8
 UBDSV3 SAVING "    UZF RECHARGE" ON UNIT  61 AT TIME STEP 10, STRESS PERIOD   8
 UBDSV3 SAVING " SURFACE LEAKAGE" ON UNIT  61 AT TIME STEP 10, STRESS PERIOD   8
 UBDSV3 SAVING "       HORT+DUNN" ON UNIT  61 AT TIME STEP 10, STRESS PERIOD   8
 UBDSV3 SAVING "  STORAGE CHANGE" ON UNIT  61 AT TIME STEP 10, STRESS PERIOD   8


UNSATURATED ZONE PACKAGE VOLUMETRIC BUDGET FOR  TIME STEP    10 STRESS PERIOD    8
  ------------------------------------------------------------------------------



     CUMULATIVE VOLUMES      L**3       RATES FOR THIS TIME STEP      L**3/T
     ------------------                 ------------------------

           IN:                                      IN:
           ---                                      ---
        INFILTRATION =  1741183440.8283          INFILTRATION =         624.3275

          OUT:                                     OUT:
          ----                                     ----
              UZF ET =   155470695.1080                UZF ET =          60.8175
        UZF RECHARGE =   838612493.0625          UZF RECHARGE =         586.6857

            IN - OUT =   747100252.6578              IN - OUT =         -23.1757

          STORAGE:                                 STORAGE:
          --------                                 --------
      STORAGE CHANGE =   747274474.1152        STORAGE CHANGE =         -23.1756

 PERCENT DISCREPANCY IS DIFFERENCE BETWEEN IN-OUT MINUS CHANGE IN STORAGE
 DIVIDED BY THE AVERAGE OF IN AND OUT TIMES 100

 PERCENT DISCREPANCY =          -0.00     PERCENT DISCREPANCY =           0.00






 

            AG WELLS      PERIOD    8   STEP  10
 AG WELL      1   LAYER   1   ROW     6   COL     4   RATE    -100.000    
 AG WELL      2   LAYER   1   ROW     6   COL     5   RATE    -100.000    
 AG WELL      3   LAYER   1   ROW     7   COL     4   RATE    -100.000    
 AG WELL      4   LAYER   1   ROW     7   COL     5   RATE    -100.000    
 AG WELL      5   LAYER   1   ROW     8   COL     4   RATE    -100.000    
 AG WELL      6   LAYER   1   ROW     8   COL     5   RATE    -100.000    
 
 

   DIVERSION SEGMENTS     PERIOD    8   STEP  10
 SEGMENT      9   RATE     23.4796    
 
 

        SW IRRIGATION     PERIOD    8   STEP  10
 SEGMENT      9   ROW     6   COL     4   RATE     3.91334    
 SEGMENT      9   ROW     6   COL     5   RATE     3.91334    
 SEGMENT      9   ROW     7   COL     4   RATE     3.91334    
 SEGMENT      9   ROW     7   COL     5   RATE     3.91334    
 SEGMENT      9   ROW     8   COL     4   RATE     3.91334    
 SEGMENT      9   ROW     8   COL     5   RATE     3.91334    
 
 

        GW IRRIGATION     PERIOD    8   STEP  10
 AG WELL      1   ROW     6   COL     4   RATE     100.000    
 AG WELL      2   ROW     6   COL     5   RATE     100.000    
 AG WELL      3   ROW     7   COL     4   RATE     100.000    
 AG WELL      4   ROW     7   COL     5   RATE     100.000    
 AG WELL      5   ROW     8   COL     4   RATE     100.000    
 AG WELL      6   ROW     8   COL     5   RATE     100.000    
 
1
  VOLUMETRIC BUDGET FOR AGRICULTURAL FIELDS AT  END OF TIME STEP   10, STRESS PERIOD   8
  ------------------------------------------------------------------------------

     CUMULATIVE VOLUMES      L**3       RATES FOR THIS TIME STEP      L**3/T
     ------------------                 ------------------------

           IN:                                      IN:
           ---                                      ---
               AG WELLS  =  1619582976.0000                 AG WELLS  =         600.0000
      DIVERSION SEGMENTS =   107415792.0000        DIVERSION SEGMENTS =          23.4796
           GW IRRIGATION =           0.0000             GW IRRIGATION =           0.0000
           SW IRRIGATION =           0.0000             SW IRRIGATION =           0.0000
        SYSTEM LOSSES GW =           0.0000          SYSTEM LOSSES GW =           0.0000
        SYSTEM LOSSES SW =           0.0000          SYSTEM LOSSES SW =           0.0000

                TOTAL IN =  1726998784.0000                  TOTAL IN =         623.4796

          OUT:                                     OUT:
          ----                                     ----
               AG WELLS  =           0.0000                 AG WELLS  =           0.0000
      DIVERSION SEGMENTS =           0.0000        DIVERSION SEGMENTS =           0.0000
           GW IRRIGATION =  1619582976.0000             GW IRRIGATION =         600.0000
           SW IRRIGATION =   107417888.0000             SW IRRIGATION =          23.4801
        SYSTEM LOSSES GW =           0.0000          SYSTEM LOSSES GW =           0.0000
        SYSTEM LOSSES SW =           0.0000          SYSTEM LOSSES SW =           0.0000

               TOTAL OUT =  1727000832.0000                 TOTAL OUT =         623.4800

                IN - OUT =       -2048.0000                  IN - OUT =      -4.2725E-04

     PERCENT DISCREPANCY =          -0.00         PERCENT DISCREPANCY =          -0.00



1
  VOLUMETRIC BUDGET FOR ENTIRE MODEL AT END OF TIME STEP   10, STRESS PERIOD   8
  ------------------------------------------------------------------------------

     CUMULATIVE VOLUMES      L**3       RATES FOR THIS TIME STEP      L**3/T
     ------------------                 ------------------------

           IN:                                      IN:
           ---                                      ---
             STORAGE     =  1790754688.0000               STORAGE     =         142.5740
       CONSTANT HEAD     =           0.0000         CONSTANT HEAD     =           0.0000
     HEAD DEP BOUNDS     =     4819904.0000       HEAD DEP BOUNDS     =           0.2880
      STREAM LEAKAGE     =   198498752.0000        STREAM LEAKAGE     =          11.9504
        UZF RECHARGE     =   838612416.0000          UZF RECHARGE     =         586.6857
               GW ET     =           0.0000                 GW ET     =           0.0000
     SURFACE LEAKAGE     =           0.0000       SURFACE LEAKAGE     =           0.0000
           AG WELLS      =           0.0000             AG WELLS      =           0.0000

                TOTAL IN =  2832685824.0000                  TOTAL IN =         741.4980

          OUT:                                     OUT:
          ----                                     ----
             STORAGE     =  1035963392.0000               STORAGE     =         130.3370
       CONSTANT HEAD     =           0.0000         CONSTANT HEAD     =           0.0000
     HEAD DEP BOUNDS     =     4829576.5000       HEAD DEP BOUNDS     =           0.2881
      STREAM LEAKAGE     =   172301984.0000        STREAM LEAKAGE     =          10.8828
        UZF RECHARGE     =           0.0000          UZF RECHARGE     =           0.0000
               GW ET     =           0.0000                 GW ET     =           0.0000
     SURFACE LEAKAGE     =           0.0000       SURFACE LEAKAGE     =           0.0000
           AG WELLS      =  1619582976.0000             AG WELLS      =         600.0000

               TOTAL OUT =  2832677888.0000                 TOTAL OUT =         741.5079

                IN - OUT =        7936.0000                  IN - OUT =      -9.8267E-03

     PERCENT DISCREPANCY =           0.00         PERCENT DISCREPANCY =          -0.00






         TIME SUMMARY AT END OF TIME STEP   10 IN STRESS PERIOD    8
                    SECONDS     MINUTES      HOURS       DAYS        YEARS
                    -----------------------------------------------------------
   TIME STEP LENGTH  87667.      1461.1      24.352      1.0147     2.77799E-03
 STRESS PERIOD TIME 8.76667E+05  14611.      243.52      10.147     2.77799E-02
         TOTAL TIME 1.67431E+07 2.79052E+05  4650.9      193.79     0.53056    
1
 
 SOLVING FOR HEAD 
                                                   Max.-Head-Change                         Max.-Flux-Residual
  Residual-Control   Outer-Iter.   Inner-Iter.     Column Row Layer    Maximum-Head-Change  Column Row Layer    Maximum-Flux-Residual          L2-NORM 
          0                 1           2             4    7     1       0.2189189529E+01       4    7    1         0.1146080133E+03      0.2402214347E+03
          0                 2           2             4    7     1       0.1298687830E+01       4    7    1         0.6840020070E+02      0.1308299044E+03
          0                 3           2             4    7     1       0.8128985607E+00       4    7    1         0.4323216644E+02      0.7336095141E+02
          0                 4           2             4    7     1       0.4852773821E+00       4    7    1         0.2596000766E+02      0.3946207973E+02
          0                 5           2             4    7     1       0.2887853569E+00       4    7    1         0.1548250239E+02      0.2176401883E+02
          0                 6           2             4    7     1       0.1716457974E+00       4    7    1         0.9210214622E+01      0.1279664177E+02
          0                 7           2             4    7     1       0.1018160950E+00       4    7    1         0.5467997752E+01      0.7583550258E+01
          0                 8           2             4    7     1       0.6043808217E-01       4    7    1         0.3246283073E+01      0.4499069063E+01
          0                 9           2             4    7     1       0.3587314780E-01       4    7    1         0.1926950378E+01      0.2669222228E+01
          0                10           2             4    7     1       0.2129172331E-01       4    7    1         0.1143735121E+01      0.1583563966E+01
                                                   Max.-Head-Change                         Max.-Flux-Residual
  Residual-Control   Outer-Iter.   Inner-Iter.     Column Row Layer    Maximum-Head-Change  Column Row Layer    Maximum-Flux-Residual          L2-NORM 
          0                11           2             4    7     1       0.1263693122E-01       4    7    1         0.6788357687E+00      0.9394632136E+00
          0                12           2             4    7     1       0.7500059284E-02       4    7    1         0.4028971864E+00      0.5573412391E+00
          0                13           2             4    7     1       0.4451242228E-02       4    7    1         0.2391202207E+00      0.3306446591E+00
          0                14           2             4    7     1       0.2641750484E-02       4    7    1         0.1419161919E+00      0.1961559463E+00
          0                15           2             4    7     1       0.1567821938E-02       4    7    1         0.8422512969E-01      0.1163700859E+00
          0                16           2             4    7     1       0.9304569735E-03       4    7    1         0.4998570685E-01      0.6903689563E-01
          0                17           2             4    7     1       0.5521927127E-03       4    7    1         0.2966501909E-01      0.4095634770E-01
          0                18           2             4    7     1       0.3277027198E-03       4    7    1         0.1760509081E-01      0.2429748221E-01
          0                19           2             4    7     1       0.1944753627E-03       4    7    1         0.1044785003E-01      0.1441456078E-01
          0                20           1             4    7     1       0.1154102709E-03       4    7    1         0.6200272550E-02      0.8551487057E-02
          0                21           1             4    7     1       0.6848884128E-04       4    7    1         0.3679509969E-02      0.5073199691E-02

    ------------------------------------------------
       NWT REQUIRED           21 OUTER ITERATIONS 
       AND A TOTAL OF         40 INNER ITERATIONS.
    ------------------------------------------------

 NO OUTPUT CONTROL FOR STRESS PERIOD    8   TIME STEP   11
 
 SOLVING FOR HEAD 
                                                   Max.-Head-Change                         Max.-Flux-Residual
  Residual-Control   Outer-Iter.   Inner-Iter.     Column Row Layer    Maximum-Head-Change  Column Row Layer    Maximum-Flux-Residual          L2-NORM 
          0                 1           2             4    6     1       0.1930511695E+01       4    6    1         0.1043151304E+03      0.1327392621E+03
          0                 2           2             4    6     1       0.5183025298E+00       4    6    1         0.2853815543E+02      0.3958918740E+02
          0                 3           2             4    6     1       0.1120537901E+00       4    6    1         0.6088419434E+01      0.6758872769E+01
          0                 4           2             4    6     1       0.2423696720E-01       4    6    1         0.1323615590E+01      0.1486889314E+01
          0                 5           2             5    8     1       0.6727155526E-02       5    8    1         0.3708961215E+00      0.4687953263E+00
          0                 6           2             5    8     1       0.3870651064E-02       5    8    1         0.2134866123E+00      0.2223857070E+00
          0                 7           2             5    8     1       0.2227061380E-02       5    8    1         0.1228342801E+00      0.1235795639E+00
          0                 8           1             5    8     1       0.1281380976E-02       5    8    1         0.7067532365E-01      0.7073734191E-01
          0                 9           1             5    8     1       0.7372646448E-03       5    8    1         0.4066435477E-01      0.4066973724E-01
          0                10           1             5    8     1       0.4241975153E-03       5    8    1         0.2339693820E-01      0.2339752849E-01
                                                   Max.-Head-Change                         Max.-Flux-Residual
  Residual-Control   Outer-Iter.   Inner-Iter.     Column Row Layer    Maximum-Head-Change  Column Row Layer    Maximum-Flux-Residual          L2-NORM 
          0                11           1             5    8     1       0.2440690139E-03       5    8    1         0.1346181908E-01      0.1346194970E-01
          0                12           1             5    8     1       0.1404290933E-03       5    8    1         0.7745479083E-02      0.7745536451E-02
          0                13           1             5    8     1       0.8079816558E-04       5    8    1         0.4456487982E-02      0.4456519398E-02

    ------------------------------------------------
       NWT REQUIRED           13 OUTER ITERATIONS 
       AND A TOTAL OF         20 INNER ITERATIONS.
    ------------------------------------------------

 NO OUTPUT CONTROL FOR STRESS PERIOD    8   TIME STEP   12
 
 SOLVING FOR HEAD 
                                                   Max.-Head-Change                         Max.-Flux-Residual
  Residual-Control   Outer-Iter.   Inner-Iter.     Column Row Layer    Maximum-Head-Change  Column Row Layer    Maximum-Flux-Residual          L2-NORM 
          0                 1           2             5    8     1       0.9378344044E+00       5    8    1         0.5103384122E+02      0.6220029704E+02
          0                 2           2             4    6     1      -0.1882612633E+01       4    6    1        -0.9973689973E+02      0.2306624577E+03
          0                 3           2             4    8     1      -0.7522798480E+00       4    8    1        -0.4169808416E+02      0.5095779223E+02
          0                 4           2             5    8     1      -0.9300131846E-01       5    8    1        -0.5331211521E+01      0.6228979855E+01
          0                 5           2             5    8     1      -0.2178159551E-01       5    8    1        -0.1233015451E+01      0.1240284556E+01
          0                 6           1             5    8     1      -0.5101127074E-02       5    8    1        -0.2893141511E+00      0.2893155760E+00
          0                 7           1             5    8     1      -0.1194614778E-02       5    8    1        -0.6774597870E-01      0.6774686013E-01
          0                 8           1             5    8     1      -0.2797537873E-03       5    8    1        -0.1586461057E-01      0.1586479568E-01
          0                 9           1             5    8     1      -0.6551046864E-04       5    8    1        -0.3715010901E-02      0.3715054514E-02

    ------------------------------------------------
       NWT REQUIRED            9 OUTER ITERATIONS 
       AND A TOTAL OF         14 INNER ITERATIONS.
    ------------------------------------------------

 NO OUTPUT CONTROL FOR STRESS PERIOD    8   TIME STEP   13
 
 SOLVING FOR HEAD 
                                                   Max.-Head-Change                         Max.-Flux-Residual
  Residual-Control   Outer-Iter.   Inner-Iter.     Column Row Layer    Maximum-Head-Change  Column Row Layer    Maximum-Flux-Residual          L2-NORM 
          0                 1           2             4    8     1       0.1178231048E+01       4    8    1         0.6388836418E+02      0.8925854934E+02
          0                 2           2             5    7     1       0.3858370225E+00       5    7    1         0.2115440349E+02      0.2934799467E+02
          0                 3           2             5    6     1       0.2008244378E+00       5    6    1         0.1098634169E+02      0.1372196067E+02
          0                 4           2             5    6     1       0.1156654758E+00       5    6    1         0.6381348600E+01      0.6620273308E+01
          0                 5           2             5    6     1       0.6642176238E-01       5    6    1         0.3670630921E+01      0.3693675401E+01
          0                 6           2             5    6     1       0.3810150016E-01       5    6    1         0.2107195194E+01      0.2109864911E+01
          0                 7           2             5    6     1       0.2184722344E-01       5    6    1         0.1208599231E+01      0.1209038078E+01
          0                 8           2             5    6     1       0.1252517175E-01       5    6    1         0.6929737045E+00      0.6930909847E+00
          0                 9           2             5    6     1       0.7180354049E-02       5    6    1         0.3972803060E+00      0.3973274196E+00
          0                10           2             5    6     1       0.4116218029E-02       5    6    1         0.2277490879E+00      0.2277725444E+00
                                                   Max.-Head-Change                         Max.-Flux-Residual
  Residual-Control   Outer-Iter.   Inner-Iter.     Column Row Layer    Maximum-Head-Change  Column Row Layer    Maximum-Flux-Residual          L2-NORM 
          0                11           2             5    6     1       0.2359647587E-02       5    6    1         0.1305594364E+00      0.1305721862E+00
          0                12           2             5    6     1       0.1352678080E-02       5    6    1         0.7484395822E-01      0.7485112202E-01
          0                13           2             5    6     1       0.7754274476E-03       5    6    1         0.4290461092E-01      0.4290868641E-01
          0                14           2             5    6     1       0.4445162512E-03       5    6    1         0.2459521751E-01      0.2459754695E-01
          0                15           2             5    6     1       0.2548202944E-03       5    6    1         0.1409928682E-01      0.1410062064E-01
          0                16           2             5    6     1       0.1460764945E-03       5    6    1         0.8082459280E-02      0.8083223545E-02
          0                17           1             5    6     1       0.8373878239E-04       5    6    1         0.4633294003E-02      0.4633732048E-02

    ------------------------------------------------
       NWT REQUIRED           17 OUTER ITERATIONS 
       AND A TOTAL OF         33 INNER ITERATIONS.
    ------------------------------------------------

 NO OUTPUT CONTROL FOR STRESS PERIOD    8   TIME STEP   14
 
 SOLVING FOR HEAD 
                                                   Max.-Head-Change                         Max.-Flux-Residual
  Residual-Control   Outer-Iter.   Inner-Iter.     Column Row Layer    Maximum-Head-Change  Column Row Layer    Maximum-Flux-Residual          L2-NORM 
          0                 1           2             4    7     1       0.1402691297E+01       4    7    1         0.7562661769E+02      0.9843580571E+02
          0                 2           2             4    8     1      -0.1883464312E+01       5    6    1        -0.1000672601E+03      0.2253644218E+03
          0                 3           2             4    6     1      -0.6430916323E+00       4    6    1        -0.3581573067E+02      0.5530582741E+02
          0                 4           2             4    6     1      -0.3829431206E+00       4    6    1        -0.2138181356E+02      0.2213444005E+02
          0                 5           2             4    6     1      -0.2281621042E+00       4    6    1        -0.1276901649E+02      0.1283742448E+02
          0                 6           2             4    6     1      -0.4541823044E-01       4    6    1        -0.2540120256E+01      0.2566853211E+01
          0                 7           2             4    6     1       0.3064307750E-02       4    6    1         0.1779267464E+00      0.2036298992E+00
          0                 8           2             4    7     1      -0.4114894287E-03       4    7    1        -0.2291337590E-01      0.2405589514E-01
          0                 9           1             4    7     1      -0.9809972367E-04       4    7    1        -0.5487974989E-02      0.5488549783E-02

    ------------------------------------------------
       NWT REQUIRED            9 OUTER ITERATIONS 
       AND A TOTAL OF         17 INNER ITERATIONS.
    ------------------------------------------------

 OUTPUT CONTROL FOR STRESS PERIOD    8   TIME STEP   15
    PRINT BUDGET
    SAVE BUDGET
 UBDSV1 SAVING "         STORAGE" ON UNIT 102 AT TIME STEP 15, STRESS PERIOD   8
 UBDSV2 SAVING "   CONSTANT HEAD" ON UNIT 102 AT TIME STEP 15, STRESS PERIOD   8
 UBDSV1 SAVING "FLOW RIGHT FACE " ON UNIT 102 AT TIME STEP 15, STRESS PERIOD   8
 UBDSV1 SAVING "FLOW FRONT FACE " ON UNIT 102 AT TIME STEP 15, STRESS PERIOD   8

  HEAD DEP BOUNDS   PERIOD    8   STEP    15
 BOUNDARY      1   LAYER   1   ROW    13   COL     1   RATE   -0.287808    
 BOUNDARY      2   LAYER   1   ROW    14   COL     9   RATE    0.287960    



 STREAM LISTING     PERIOD      8   STEP       15

 LAYER ROW COL. STREAM  RCH.  FLOW INTO     FLOW TO   FLOW OUT OF   OVRLND.     DIRECT     STREAM       STREAM     STREAM     STREAM   STREAMBED  STREAMBED
                SEG.NO.  NO.  STRM. RCH.    AQUIFER    STRM. RCH.    RUNOFF     PRECIP       ET          HEAD       DEPTH      WIDTH   CONDCTNC.   GRADIENT

   1    1    1     1     1    2.8125E+01  2.5915E-01   2.7866E+01  0.000E+00  0.000E+00  0.000E+00  1.09427E+03  1.223E+00  1.364E+01  6.137E-02  1.408E+00
   1    2    2     1     2    2.7866E+01  4.0087E-01   2.7465E+01  0.000E+00  0.000E+00  0.000E+00  1.08928E+03  1.218E+00  1.358E+01  9.503E-02  1.406E+00
   1    3    3     1     3    2.7465E+01  3.4142E-01   2.7123E+01  0.000E+00  0.000E+00  0.000E+00  1.08363E+03  1.213E+00  1.351E+01  8.103E-02  1.404E+00
   1    3    4     1     4    2.7123E+01  3.1403E-01   2.6809E+01  0.000E+00  0.000E+00  0.000E+00  1.07862E+03  1.209E+00  1.344E+01  7.461E-02  1.403E+00
   1    4    5     2     1    2.4809E+01  3.2739E-01   2.4482E+01  0.000E+00  0.000E+00  0.000E+00  1.07313E+03  1.197E+00  1.200E+01  7.800E-02  1.399E+00
   1    5    6     2     2    2.4482E+01  2.5133E-01   2.4231E+01  0.000E+00  0.000E+00  0.000E+00  1.06770E+03  1.189E+00  1.200E+01  6.000E-02  1.396E+00
   1    6    6     2     3    2.4231E+01  2.5089E-01   2.3980E+01  0.000E+00  0.000E+00  0.000E+00  1.06297E+03  1.181E+00  1.200E+01  6.000E-02  1.394E+00
   1    7    6     2     4    2.3980E+01  2.5044E-01   2.3729E+01  0.000E+00  0.000E+00  0.000E+00  1.05825E+03  1.174E+00  1.200E+01  6.000E-02  1.391E+00
   1    8    6     2     5    2.3729E+01  2.5000E-01   2.3479E+01  0.000E+00  0.000E+00  0.000E+00  1.05353E+03  1.167E+00  1.200E+01  6.000E-02  1.389E+00
   1    3    5     3     1    2.0000E+00  2.8252E-01   1.7175E+00  0.000E+00  0.000E+00  0.000E+00  1.07555E+03  1.909E+00  9.636E+00  7.227E-02  1.955E+00
   1    3    6     3     2    1.7175E+00  2.4905E-01   1.4684E+00  0.000E+00  0.000E+00  0.000E+00  1.07264E+03  1.727E+00  8.909E+00  6.682E-02  1.864E+00
   1    3    7     3     3    1.4684E+00  1.9718E-01   1.2712E+00  0.000E+00  0.000E+00  0.000E+00  1.06987E+03  1.555E+00  8.218E+00  5.547E-02  1.777E+00
   1    4    8     3     4    1.2712E+00  2.2567E-01   1.0456E+00  0.000E+00  0.000E+00  0.000E+00  1.06682E+03  1.364E+00  7.455E+00  6.709E-02  1.682E+00
   1    5    8     3     5    1.0456E+00  1.5790E-01   8.8768E-01  0.000E+00  0.000E+00  0.000E+00  1.06362E+03  1.164E+00  6.655E+00  4.991E-02  1.582E+00
   1    6    8     3     6    8.8768E-01  5.5980E-02   8.3170E-01  0.000E+00  0.000E+00  0.000E+00  1.06158E+03  1.036E+00  6.145E+00  1.844E-02  1.518E+00
   1    5   10     4     1    1.0000E+01  9.0919E-02   9.9091E+00  0.000E+00  0.000E+00  0.000E+00  1.07836E+03  6.368E-01  1.000E+01  2.500E-02  1.212E+00
   1    5    9     4     2    9.9091E+00  1.8158E-01   9.7275E+00  0.000E+00  0.000E+00  0.000E+00  1.07154E+03  6.315E-01  1.000E+01  5.000E-02  1.211E+00
   1    6    8     4     3    9.7275E+00  1.2689E-01   9.6006E+00  0.000E+00  0.000E+00  0.000E+00  1.06381E+03  6.256E-01  1.000E+01  3.500E-02  1.209E+00
   1    6    8     5     1    1.0432E+01  2.2686E-01   1.0205E+01  0.000E+00  0.000E+00  0.000E+00  1.05868E+03  6.790E-01  1.542E+01  6.166E-02  1.226E+00
   1    7    7     5     2    1.0205E+01  2.7894E-01   9.9265E+00  0.000E+00  0.000E+00  0.000E+00  1.05417E+03  6.732E-01  1.519E+01  7.594E-02  1.224E+00
   1    8    7     5     3    9.9265E+00  1.9221E-01   9.7343E+00  0.000E+00  0.000E+00  0.000E+00  1.04992E+03  6.676E-01  1.497E+01  5.241E-02  1.223E+00
   1    8    6     5     4    9.7343E+00  1.3577E-01   9.5985E+00  0.000E+00  0.000E+00  0.000E+00  1.04691E+03  6.637E-01  1.482E+01  3.706E-02  1.221E+00
   1    9    6     6     1    9.5985E+00  2.2097E-01   9.3776E+00  0.000E+00  0.000E+00  0.000E+00  1.04341E+03  6.828E-01  1.200E+01  6.000E-02  1.228E+00
   1   10    7     6     2    9.3776E+00  2.2039E-01   9.1572E+00  0.000E+00  0.000E+00  0.000E+00  1.03885E+03  6.732E-01  1.200E+01  6.000E-02  1.224E+00
   1   11    7     6     3    9.1572E+00  2.1981E-01   8.9374E+00  0.000E+00  0.000E+00  0.000E+00  1.03430E+03  6.636E-01  1.200E+01  6.000E-02  1.221E+00
   1   12    7     6     4    8.9374E+00  2.1923E-01   8.7181E+00  0.000E+00  0.000E+00  0.000E+00  1.02974E+03  6.539E-01  1.200E+01  6.000E-02  1.218E+00
   1   13    7     6     5    8.7181E+00 -6.6834E-02   8.7850E+00  0.000E+00  0.000E+00  0.000E+00  1.02656E+03  6.505E-01  1.200E+01  2.400E-01 -9.282E-02
   1   14    9     7     1    1.5000E+02  1.3681E+00   1.4863E+02  0.000E+00  0.000E+00  0.000E+00  1.03987E+03  2.288E+00  5.529E+01  5.593E-01  8.154E-01
   1   13    8     7     2    1.4863E+02  1.9169E+00   1.4671E+02  0.000E+00  0.000E+00  0.000E+00  1.03478E+03  2.279E+00  5.526E+01  6.148E-01  1.039E+00
   1   13    7     7     3    1.4671E+02  1.5919E+00   1.4512E+02  0.000E+00  0.000E+00  0.000E+00  1.02969E+03  2.270E+00  5.521E+01  5.584E-01  9.503E-01
   1   13    6     8     1    1.5391E+02  9.4371E-01   1.5296E+02  0.000E+00  0.000E+00  0.000E+00  1.02472E+03  2.841E+00  4.119E+01  4.198E-01  7.494E-01
   1   13    5     8     2    1.5296E+02  2.1107E-01   1.5275E+02  0.000E+00  0.000E+00  0.000E+00  1.01846E+03  2.837E+00  4.113E+01  4.192E-01  1.678E-01
   1   13    4     8     3    1.5275E+02 -2.3343E+00   1.5509E+02  0.000E+00  0.000E+00  0.000E+00  1.01222E+03  2.844E+00  4.124E+01  4.203E+00 -1.851E-01
   1   13    3     8     4    1.5509E+02 -3.6473E+00   1.5873E+02  0.000E+00  0.000E+00  0.000E+00  1.00599E+03  2.865E+00  4.154E+01  4.233E+00 -2.872E-01
   1   13    2     8     5    1.5873E+02 -2.6605E+00   1.6140E+02  0.000E+00  0.000E+00  0.000E+00  9.99761E+02  2.886E+00  4.185E+01  4.265E+00 -2.079E-01
   1   13    1     8     6    1.6140E+02 -2.0500E+00   1.6345E+02  0.000E+00  0.000E+00  0.000E+00  9.94777E+02  2.902E+00  4.208E+01  2.573E+00 -2.656E-01
   1    8    6     9     1    2.3479E+01  0.0000E+00   2.3479E+01  0.000E+00  0.000E+00  0.000E+00  1.08253E+03  3.782E+00  4.000E+00  0.000E+00  2.261E+00
   1    8    5     9     2    2.3479E+01  0.0000E+00   2.3479E+01  0.000E+00  0.000E+00  0.000E+00  1.08203E+03  3.782E+00  4.000E+00  0.000E+00  2.261E+00



 UBDSV3 SAVING "           GW ET" ON UNIT  61 AT TIME STEP 15, STRESS PERIOD   8
 UBDSV3 SAVING "    UZF RECHARGE" ON UNIT  61 AT TIME STEP 15, STRESS PERIOD   8
 UBDSV3 SAVING " SURFACE LEAKAGE" ON UNIT  61 AT TIME STEP 15, STRESS PERIOD   8
 UBDSV3 SAVING "       HORT+DUNN" ON UNIT  61 AT TIME STEP 15, STRESS PERIOD   8
 UBDSV3 SAVING "  STORAGE CHANGE" ON UNIT  61 AT TIME STEP 15, STRESS PERIOD   8


UNSATURATED ZONE PACKAGE VOLUMETRIC BUDGET FOR  TIME STEP    15 STRESS PERIOD    8
  ------------------------------------------------------------------------------



     CUMULATIVE VOLUMES      L**3       RATES FOR THIS TIME STEP      L**3/T
     ------------------                 ------------------------

           IN:                                      IN:
           ---                                      ---
        INFILTRATION =  1864851871.0577          INFILTRATION =         624.3272

          OUT:                                     OUT:
          ----                                     ----
              UZF ET =   182161092.3374                UZF ET =          60.8175
        UZF RECHARGE =  1004030225.0781          UZF RECHARGE =          58.1399

            IN - OUT =   678660553.6422              IN - OUT =         505.3698

          STORAGE:                                 STORAGE:
          --------                                 --------
      STORAGE CHANGE =   678834779.7960        STORAGE CHANGE =         505.3698

 PERCENT DISCREPANCY IS DIFFERENCE BETWEEN IN-OUT MINUS CHANGE IN STORAGE
 DIVIDED BY THE AVERAGE OF IN AND OUT TIMES 100

 PERCENT DISCREPANCY =          -0.00     PERCENT DISCREPANCY =          -0.00






 

            AG WELLS      PERIOD    8   STEP  15
 AG WELL      1   LAYER   1   ROW     6   COL     4   RATE    -100.000    
 AG WELL      2   LAYER   1   ROW     6   COL     5   RATE    -100.000    
 AG WELL      3   LAYER   1   ROW     7   COL     4   RATE    -100.000    
 AG WELL      4   LAYER   1   ROW     7   COL     5   RATE    -100.000    
 AG WELL      5   LAYER   1   ROW     8   COL     4   RATE    -100.000    
 AG WELL      6   LAYER   1   ROW     8   COL     5   RATE    -100.000    
 
 

   DIVERSION SEGMENTS     PERIOD    8   STEP  15
 SEGMENT      9   RATE     23.4793    
 
 

        SW IRRIGATION     PERIOD    8   STEP  15
 SEGMENT      9   ROW     6   COL     4   RATE     3.91329    
 SEGMENT      9   ROW     6   COL     5   RATE     3.91329    
 SEGMENT      9   ROW     7   COL     4   RATE     3.91329    
 SEGMENT      9   ROW     7   COL     5   RATE     3.91329    
 SEGMENT      9   ROW     8   COL     4   RATE     3.91329    
 SEGMENT      9   ROW     8   COL     5   RATE     3.91329    
 
 

        GW IRRIGATION     PERIOD    8   STEP  15
 AG WELL      1   ROW     6   COL     4   RATE     100.000    
 AG WELL      2   ROW     6   COL     5   RATE     100.000    
 AG WELL      3   ROW     7   COL     4   RATE     100.000    
 AG WELL      4   ROW     7   COL     5   RATE     100.000    
 AG WELL      5   ROW     8   COL     4   RATE     100.000    
 AG WELL      6   ROW     8   COL     5   RATE     100.000    
 
1
  VOLUMETRIC BUDGET FOR AGRICULTURAL FIELDS AT  END OF TIME STEP   15, STRESS PERIOD   8
  ------------------------------------------------------------------------------

     CUMULATIVE VOLUMES      L**3       RATES FOR THIS TIME STEP      L**3/T
     ------------------                 ------------------------

           IN:                                      IN:
           ---                                      ---
               AG WELLS  =  1733144320.0000                 AG WELLS  =         600.0000
      DIVERSION SEGMENTS =   117151328.0000        DIVERSION SEGMENTS =          23.4793
           GW IRRIGATION =           0.0000             GW IRRIGATION =           0.0000
           SW IRRIGATION =           0.0000             SW IRRIGATION =           0.0000
        SYSTEM LOSSES GW =           0.0000          SYSTEM LOSSES GW =           0.0000
        SYSTEM LOSSES SW =           0.0000          SYSTEM LOSSES SW =           0.0000

                TOTAL IN =  1850295680.0000                  TOTAL IN =         623.4792

          OUT:                                     OUT:
          ----                                     ----
               AG WELLS  =           0.0000                 AG WELLS  =           0.0000
      DIVERSION SEGMENTS =           0.0000        DIVERSION SEGMENTS =           0.0000
           GW IRRIGATION =  1733144320.0000             GW IRRIGATION =         600.0000
           SW IRRIGATION =   117153608.0000             SW IRRIGATION =          23.4797
        SYSTEM LOSSES GW =           0.0000          SYSTEM LOSSES GW =           0.0000
        SYSTEM LOSSES SW =           0.0000          SYSTEM LOSSES SW =           0.0000

               TOTAL OUT =  1850297984.0000                 TOTAL OUT =         623.4797

                IN - OUT =       -2304.0000                  IN - OUT =      -4.8828E-04

     PERCENT DISCREPANCY =          -0.00         PERCENT DISCREPANCY =          -0.00



1
  VOLUMETRIC BUDGET FOR ENTIRE MODEL AT END OF TIME STEP   15, STRESS PERIOD   8
  ------------------------------------------------------------------------------

     CUMULATIVE VOLUMES      L**3       RATES FOR THIS TIME STEP      L**3/T
     ------------------                 ------------------------

           IN:                                      IN:
           ---                                      ---
             STORAGE     =  1907320064.0000               STORAGE     =         566.2698
       CONSTANT HEAD     =           0.0000         CONSTANT HEAD     =           0.0000
     HEAD DEP BOUNDS     =     4946126.0000       HEAD DEP BOUNDS     =           0.2880
      STREAM LEAKAGE     =   203749424.0000        STREAM LEAKAGE     =          11.9591
        UZF RECHARGE     =  1004030144.0000          UZF RECHARGE     =          58.1399
               GW ET     =           0.0000                 GW ET     =           0.0000
     SURFACE LEAKAGE     =           0.0000       SURFACE LEAKAGE     =           0.0000
           AG WELLS      =           0.0000             AG WELLS      =           0.0000

                TOTAL IN =  3120045824.0000                  TOTAL IN =         636.6569

          OUT:                                     OUT:
          ----                                     ----
             STORAGE     =  1204944128.0000               STORAGE     =          25.6114
       CONSTANT HEAD     =           0.0000         CONSTANT HEAD     =           0.0000
     HEAD DEP BOUNDS     =     4955777.0000       HEAD DEP BOUNDS     =           0.2878
      STREAM LEAKAGE     =   176993136.0000        STREAM LEAKAGE     =          10.7589
        UZF RECHARGE     =           0.0000          UZF RECHARGE     =           0.0000
               GW ET     =           0.0000                 GW ET     =           0.0000
     SURFACE LEAKAGE     =           0.0000       SURFACE LEAKAGE     =           0.0000
           AG WELLS      =  1733144320.0000             AG WELLS      =         600.0000

               TOTAL OUT =  3120037376.0000                 TOTAL OUT =         636.6581

                IN - OUT =        8448.0000                  IN - OUT =      -1.2817E-03

     PERCENT DISCREPANCY =           0.00         PERCENT DISCREPANCY =          -0.00






         TIME SUMMARY AT END OF TIME STEP   15 IN STRESS PERIOD    8
                    SECONDS     MINUTES      HOURS       DAYS        YEARS
                    -----------------------------------------------------------
   TIME STEP LENGTH  87667.      1461.1      24.352      1.0147     2.77799E-03
 STRESS PERIOD TIME 1.31500E+06  21917.      365.28      15.220     4.16698E-02
         TOTAL TIME 1.71814E+07 2.86357E+05  4772.6      198.86     0.54445    
1
 
 SOLVING FOR HEAD 
                                                   Max.-Head-Change                         Max.-Flux-Residual
  Residual-Control   Outer-Iter.   Inner-Iter.     Column Row Layer    Maximum-Head-Change  Column Row Layer    Maximum-Flux-Residual          L2-NORM 
          0                 1           2             5    8     1       0.1270969177E+01       5    8    1         0.6992639257E+02      0.7950515840E+02
          0                 2           2             5    8     1       0.3041884516E+00       5    8    1         0.1683538207E+02      0.1818152382E+02
          0                 3           2             5    8     1       0.9630485346E-01       5    8    1         0.5258109115E+01      0.7011178394E+01
          0                 4           2             5    8     1       0.2049013412E-01       5    8    1         0.1132456510E+01      0.1390973346E+01
          0                 5           2             5    8     1       0.4359786969E-02       5    8    1         0.2404194193E+00      0.3029441037E+00
          0                 6           2             5    8     1       0.9277099028E-03       5    8    1         0.5115711317E-01      0.6740245944E-01
          0                 7           2             5    8     1       0.1974192644E-03       5    8    1         0.1088546707E-01      0.1521645030E-01
          0                 8           1             5    8     1       0.4201492812E-04       5    8    1         0.2316459062E-02      0.3494486592E-02

    ------------------------------------------------
       NWT REQUIRED            8 OUTER ITERATIONS 
       AND A TOTAL OF         15 INNER ITERATIONS.
    ------------------------------------------------

 NO OUTPUT CONTROL FOR STRESS PERIOD    8   TIME STEP   16
 
 SOLVING FOR HEAD 
                                                   Max.-Head-Change                         Max.-Flux-Residual
  Residual-Control   Outer-Iter.   Inner-Iter.     Column Row Layer    Maximum-Head-Change  Column Row Layer    Maximum-Flux-Residual          L2-NORM 
          0                 1           2             4    8     1       0.1287685887E+01       4    8    1         0.6957539114E+02      0.9540868537E+02
          0                 2           2             4    6     1      -0.1880729641E+01       4    6    1        -0.1000277422E+03      0.2167074100E+03
          0                 3           2             5    6     1      -0.8143372790E+00       5    6    1        -0.4568492446E+02      0.7052077664E+02
          0                 4           2             5    7     1      -0.4339316942E+00       5    7    1        -0.2469555157E+02      0.2920457301E+02
          0                 5           2             5    7     1      -0.1637794868E+00       5    7    1        -0.9284140056E+01      0.1298033882E+02
          0                 6           2             4    8     1      -0.9732989487E-01       4    8    1        -0.5427224516E+01      0.5466158431E+01
          0                 7           2             4    8     1      -0.5820958377E-01       4    8    1        -0.3245741187E+01      0.3245854436E+01
          0                 8           2             4    8     1      -0.3481297685E-01       4    8    1        -0.1941130098E+01      0.1941133316E+01
          0                 9           2             4    8     1      -0.2082024291E-01       4    8    1        -0.1160897954E+01      0.1160899855E+01
          0                10           2             4    8     1      -0.1245168452E-01       4    8    1        -0.6942751252E+00      0.6942762626E+00
                                                   Max.-Head-Change                         Max.-Flux-Residual
  Residual-Control   Outer-Iter.   Inner-Iter.     Column Row Layer    Maximum-Head-Change  Column Row Layer    Maximum-Flux-Residual          L2-NORM 
          0                11           2             4    8     1      -0.7446770069E-02       4    8    1        -0.4152091975E+00      0.4152098778E+00
          0                12           2             4    8     1      -0.4453538391E-02       4    8    1        -0.2483132608E+00      0.2483136677E+00
          0                13           2             4    8     1      -0.2663420983E-02       4    8    1        -0.1485013226E+00      0.1485015660E+00
          0                14           2             4    8     1      -0.1592838552E-02       4    8    1        -0.8880923227E-01      0.8880937785E-01
          0                15           2             4    8     1      -0.9525790014E-03       4    8    1        -0.5311084968E-01      0.5311093679E-01
          0                16           2             4    8     1      -0.5696754977E-03       4    8    1        -0.3176184308E-01      0.3176189513E-01
          0                17           2             4    8     1      -0.3406837037E-03       4    8    1        -0.1899439382E-01      0.1899442511E-01
          0                18           2             4    8     1      -0.2037381971E-03       4    8    1        -0.1135906193E-01      0.1135908081E-01
          0                19           2             4    8     1      -0.1218402645E-03       4    8    1        -0.6792924336E-02      0.6792935818E-02
          0                20           1             4    8     1      -0.7286290484E-04       4    8    1        -0.4062266060E-02      0.4062273263E-02

    ------------------------------------------------
       NWT REQUIRED           20 OUTER ITERATIONS 
       AND A TOTAL OF         39 INNER ITERATIONS.
    ------------------------------------------------

 NO OUTPUT CONTROL FOR STRESS PERIOD    8   TIME STEP   17
 
 SOLVING FOR HEAD 
                                                   Max.-Head-Change                         Max.-Flux-Residual
  Residual-Control   Outer-Iter.   Inner-Iter.     Column Row Layer    Maximum-Head-Change  Column Row Layer    Maximum-Flux-Residual          L2-NORM 
          0                 1           2             4    7     1       0.1117498367E+01       4    7    1         0.5965858533E+02      0.9019209117E+02
          0                 2           2             4    7     1       0.4483643303E+00       4    7    1         0.2419217691E+02      0.2733177038E+02
          0                 3           2             4    7     1       0.1314251343E+00       4    7    1         0.7008751308E+01      0.1008768513E+02
          0                 4           2             4    6     1       0.4702732622E-01       4    6    1         0.2529707561E+01      0.3242495320E+01
          0                 5           2             4    6     1       0.2764074587E-01       4    6    1         0.1498962120E+01      0.1569055388E+01
          0                 6           2             4    6     1       0.1617497586E-01       4    6    1         0.8798183740E+00      0.8868103474E+00
          0                 7           2             4    6     1       0.9449824548E-02       4    6    1         0.5145930280E+00      0.5154456720E+00
          0                 8           2             4    6     1       0.5517408788E-02       4    6    1         0.3005801091E+00      0.3007353040E+00
          0                 9           2             4    6     1       0.3220662376E-02       4    6    1         0.1754850455E+00      0.1755314744E+00
          0                10           2             4    6     1       0.1879822879E-02       4    6    1         0.1024326153E+00      0.1024526324E+00
                                                   Max.-Head-Change                         Max.-Flux-Residual
  Residual-Control   Outer-Iter.   Inner-Iter.     Column Row Layer    Maximum-Head-Change  Column Row Layer    Maximum-Flux-Residual          L2-NORM 
          0                11           2             4    6     1       0.1097170626E-02       4    6    1         0.5978682784E-01      0.5979717327E-01
          0                12           2             4    6     1       0.6403625495E-03       4    6    1         0.3489482817E-01      0.3490059002E-01
          0                13           2             4    6     1       0.3737451772E-03       4    6    1         0.2036630216E-01      0.2036960563E-01
          0                14           2             4    6     1       0.2181345604E-03       4    6    1         0.1188670864E-01      0.1188862369E-01
          0                15           2             4    6     1       0.1273130903E-03       4    6    1         0.6937618464E-02      0.6938733323E-02
          0                16           1             4    6     1       0.7430559666E-04       4    6    1         0.4049104275E-02      0.4049754330E-02

    ------------------------------------------------
       NWT REQUIRED           16 OUTER ITERATIONS 
       AND A TOTAL OF         31 INNER ITERATIONS.
    ------------------------------------------------

 NO OUTPUT CONTROL FOR STRESS PERIOD    8   TIME STEP   18
 
 SOLVING FOR HEAD 
                                                   Max.-Head-Change                         Max.-Flux-Residual
  Residual-Control   Outer-Iter.   Inner-Iter.     Column Row Layer    Maximum-Head-Change  Column Row Layer    Maximum-Flux-Residual          L2-NORM 
          0                 1           2             5    8     1       0.1286883819E+01       5    8    1         0.7091986697E+02      0.8905841510E+02
          0                 2           2             4    7     1      -0.1848419874E+01       5    6    1        -0.9958602102E+02      0.2325171056E+03
          0                 3           2             5    8     1      -0.4732696264E+00       5    8    1        -0.2700507218E+02      0.3663737895E+02
          0                 4           2             5    8     1      -0.2777869834E+00       5    8    1        -0.1574629271E+02      0.1657302416E+02
          0                 5           2             5    8     1      -0.1630480897E+00       5    8    1        -0.9245752897E+01      0.9326644180E+01
          0                 6           2             5    8     1      -0.9570221319E-01       5    8    1        -0.5426640296E+01      0.5434477615E+01
          0                 7           2             5    8     1      -0.5609837327E-01       5    8    1        -0.3182906568E+01      0.3183672525E+01
          0                 8           2             5    8     1      -0.3290335738E-01       5    8    1        -0.1866862251E+01      0.1866939044E+01
          0                 9           2             5    8     1      -0.1929869225E-01       5    8    1        -0.1094951091E+01      0.1094960399E+01
          0                10           2             5    8     1      -0.1131912958E-01       5    8    1        -0.6422072204E+00      0.6422092243E+00
                                                   Max.-Head-Change                         Max.-Flux-Residual
  Residual-Control   Outer-Iter.   Inner-Iter.     Column Row Layer    Maximum-Head-Change  Column Row Layer    Maximum-Flux-Residual          L2-NORM 
          0                11           2             5    8     1      -0.6638890825E-02       5    8    1        -0.3766632492E+00      0.3766640899E+00
          0                12           1             5    8     1      -0.3893814713E-02       5    8    1        -0.2209167910E+00      0.2209172514E+00
          0                13           1             5    8     1      -0.2283769387E-02       5    8    1        -0.1295691185E+00      0.1295693853E+00
          0                14           1             5    8     1      -0.1339449650E-02       5    8    1        -0.7599263718E-01      0.7599279337E-01
          0                15           1             5    8     1      -0.7855931764E-03       5    8    1        -0.4456959861E-01      0.4456969018E-01
          0                16           1             5    8     1      -0.4607508714E-03       5    8    1        -0.2613985061E-01      0.2613990431E-01
          0                17           1             5    8     1      -0.2702288884E-03       5    8    1        -0.1533079363E-01      0.1533082512E-01
          0                18           1             5    8     1      -0.1584873222E-03       5    8    1        -0.8991317293E-02      0.8991335764E-02
          0                19           1             5    8     1      -0.9295107618E-04       5    8    1        -0.5273259644E-02      0.5273270502E-02

    ------------------------------------------------
       NWT REQUIRED           19 OUTER ITERATIONS 
       AND A TOTAL OF         30 INNER ITERATIONS.
    ------------------------------------------------

 NO OUTPUT CONTROL FOR STRESS PERIOD    8   TIME STEP   19
 
 SOLVING FOR HEAD 
                                                   Max.-Head-Change                         Max.-Flux-Residual
  Residual-Control   Outer-Iter.   Inner-Iter.     Column Row Layer    Maximum-Head-Change  Column Row Layer    Maximum-Flux-Residual          L2-NORM 
          0                 1           2             5    8     1       0.6637550761E+00       5    8    1         0.3609629869E+02      0.4660572115E+02
          0                 2           2             4    8     1       0.2643521952E+00       4    8    1         0.1429800794E+02      0.1643578078E+02
          0                 3           2             4    8     1       0.1881505325E+00       4    8    1         0.1013614469E+02      0.1175597933E+02
          0                 4           2             4    8     1       0.1107097525E+00       4    8    1         0.5994273368E+01      0.6528214281E+01
          0                 5           2             4    8     1       0.6504907804E-01       4    8    1         0.3524920544E+01      0.3805307937E+01
          0                 6           2             4    8     1       0.3820047272E-01       4    8    1         0.2070803274E+01      0.2227559238E+01
          0                 7           2             4    8     1       0.2242911626E-01       4    8    1         0.1216019194E+01      0.1304568484E+01
          0                 8           2             4    8     1       0.1316811307E-01       4    8    1         0.7139610936E+00      0.7640814109E+00
          0                 9           2             4    8     1       0.7730754547E-02       4    8    1         0.4191625245E+00      0.4475448027E+00
          0                10           2             4    8     1       0.4538518729E-02       4    8    1         0.2460817485E+00      0.2621565840E+00
                                                   Max.-Head-Change                         Max.-Flux-Residual
  Residual-Control   Outer-Iter.   Inner-Iter.     Column Row Layer    Maximum-Head-Change  Column Row Layer    Maximum-Flux-Residual          L2-NORM 
          0                11           2             4    8     1       0.2664421107E-02       4    8    1         0.1444677866E+00      0.1535727302E+00
          0                12           2             4    8     1       0.1564188400E-02       4    8    1         0.8481240635E-01      0.8996979500E-01
          0                13           2             4    8     1       0.9182757315E-03       4    8    1         0.4979036477E-01      0.5271183638E-01
          0                14           2             4    8     1       0.5390824267E-03       4    8    1         0.2923002016E-01      0.3088500019E-01
          0                15           2             4    8     1       0.3164720449E-03       4    8    1         0.1715975002E-01      0.1809732861E-01
          0                16           2             4    8     1       0.1857863068E-03       4    8    1         0.1007374416E-01      0.1060492669E-01
          0                17           1             4    8     1       0.1090662205E-03       4    8    1         0.5913832927E-02      0.6214779191E-02
          0                18           1             4    8     1       0.6402728433E-04       4    8    1         0.3471725699E-02      0.3642241052E-02

    ------------------------------------------------
       NWT REQUIRED           18 OUTER ITERATIONS 
       AND A TOTAL OF         34 INNER ITERATIONS.
    ------------------------------------------------

 NO OUTPUT CONTROL FOR STRESS PERIOD    8   TIME STEP   20
 
 SOLVING FOR HEAD 
                                                   Max.-Head-Change                         Max.-Flux-Residual
  Residual-Control   Outer-Iter.   Inner-Iter.     Column Row Layer    Maximum-Head-Change  Column Row Layer    Maximum-Flux-Residual          L2-NORM 
          0                 1           2             5    6     1       0.1347586985E+01       5    6    1         0.7298212114E+02      0.1166703334E+03
          0                 2           2             5    8     1      -0.1786110480E+01       5    8    1        -0.9855191906E+02      0.2146268621E+03
          0                 3           2             4    6     1      -0.6556296766E+00       4    6    1        -0.3592286365E+02      0.6271114651E+02
          0                 4           2             4    7     1      -0.3864640527E+00       4    7    1        -0.2162028440E+02      0.2302849782E+02
          0                 5           2             4    7     1      -0.2313270887E+00       4    7    1        -0.1291262230E+02      0.1304156333E+02
          0                 6           2             4    7     1      -0.1380446112E+00       4    7    1        -0.7713316529E+01      0.7728508551E+01
          0                 7           2             4    7     1      -0.1265331340E-01       4    7    1        -0.7054337672E+00      0.7205398901E+00
          0                 8           2             4    7     1       0.8507284348E-03       4    7    1         0.4943887343E-01      0.6226973563E-01
          0                 9           2             5    7     1      -0.1380402087E-03       5    7    1        -0.7737906155E-02      0.9048315353E-02
          0                10           1             5    7     1      -0.3265022686E-04       5    7    1        -0.1837554781E-02      0.2104590355E-02

    ------------------------------------------------
       NWT REQUIRED           10 OUTER ITERATIONS 
       AND A TOTAL OF         19 INNER ITERATIONS.
    ------------------------------------------------

 NO OUTPUT CONTROL FOR STRESS PERIOD    8   TIME STEP   21
 
 SOLVING FOR HEAD 
                                                   Max.-Head-Change                         Max.-Flux-Residual
  Residual-Control   Outer-Iter.   Inner-Iter.     Column Row Layer    Maximum-Head-Change  Column Row Layer    Maximum-Flux-Residual          L2-NORM 
          0                 1           2             4    6     1       0.1292240248E+01       4    6    1         0.6972893594E+02      0.8925284500E+02
          0                 2           2             4    6     1       0.3070143994E+00       5    8    1         0.1684514835E+02      0.2520139369E+02
          0                 3           2             5    8     1       0.2069888952E+00       5    8    1         0.1136364098E+02      0.1339676935E+02
          0                 4           2             5    8     1       0.1192510149E+00       5    8    1         0.6571059970E+01      0.6761218929E+01
          0                 5           2             5    8     1       0.6866002485E-01       5    8    1         0.3784771588E+01      0.3804322709E+01
          0                 6           2             5    8     1       0.3952009607E-01       5    8    1         0.2179074422E+01      0.2181524244E+01
          0                 7           2             5    8     1       0.2274428266E-01       5    8    1         0.1254235026E+01      0.1254703817E+01
          0                 8           2             5    8     1       0.1308876398E-01       5    8    1         0.7218220782E+00      0.7219724162E+00
          0                 9           2             5    8     1       0.7532030579E-02       5    8    1         0.4153892104E+00      0.4154565119E+00
          0                10           2             5    8     1       0.4334305276E-02       5    8    1         0.2390386198E+00      0.2390734852E+00
                                                   Max.-Head-Change                         Max.-Flux-Residual
  Residual-Control   Outer-Iter.   Inner-Iter.     Column Row Layer    Maximum-Head-Change  Column Row Layer    Maximum-Flux-Residual          L2-NORM 
          0                11           1             5    8     1       0.2494158939E-02       5    8    1         0.1375546431E+00      0.1375738088E+00
          0                12           1             5    8     1       0.1435249671E-02       5    8    1         0.7915526182E-01      0.7916606642E-01
          0                13           1             5    8     1       0.8259051653E-03       5    8    1         0.4554944495E-01      0.4555560452E-01
          0                14           1             5    8     1       0.4752614907E-03       5    8    1         0.2621113394E-01      0.2621466322E-01
          0                15           1             5    8     1       0.2734858978E-03       5    8    1         0.1508301828E-01      0.1508504510E-01
          0                16           1             5    8     1       0.1573755221E-03       5    8    1         0.8679417421E-02      0.8680582624E-02
          0                17           1             5    8     1       0.9056062288E-04       5    8    1         0.4994509360E-02      0.4995179707E-02

    ------------------------------------------------
       NWT REQUIRED           17 OUTER ITERATIONS 
       AND A TOTAL OF         27 INNER ITERATIONS.
    ------------------------------------------------

 NO OUTPUT CONTROL FOR STRESS PERIOD    8   TIME STEP   22
 
 SOLVING FOR HEAD 
                                                   Max.-Head-Change                         Max.-Flux-Residual
  Residual-Control   Outer-Iter.   Inner-Iter.     Column Row Layer    Maximum-Head-Change  Column Row Layer    Maximum-Flux-Residual          L2-NORM 
          0                 1           2             4    8     1       0.8009667121E+00       4    8    1         0.4314249937E+02      0.5712425875E+02
          0                 2           2             4    7     1      -0.1834108981E+01       4    6    1        -0.9967061610E+02      0.2245995909E+03
          0                 3           2             4    8     1      -0.8340245880E+00       4    8    1        -0.4629312348E+02      0.6375549503E+02
          0                 4           2             4    8     1      -0.2295371668E+00       4    8    1        -0.1283375503E+02      0.1318716649E+02
          0                 5           2             4    8     1       0.1563494157E-01       4    8    1         0.8984459306E+00      0.9071719713E+00
          0                 6           2             4    8     1      -0.6224248664E-03       4    8    1        -0.3674859400E-01      0.3679655509E-01
          0                 7           1             4    8     1       0.7686162560E-05       4    8    1         0.4660980153E-03      0.4667488852E-03

    ------------------------------------------------
       NWT REQUIRED            7 OUTER ITERATIONS 
       AND A TOTAL OF         13 INNER ITERATIONS.
    ------------------------------------------------

 NO OUTPUT CONTROL FOR STRESS PERIOD    8   TIME STEP   23
 
 SOLVING FOR HEAD 
                                                   Max.-Head-Change                         Max.-Flux-Residual
  Residual-Control   Outer-Iter.   Inner-Iter.     Column Row Layer    Maximum-Head-Change  Column Row Layer    Maximum-Flux-Residual          L2-NORM 
          0                 1           2             5    7     1       0.1376582021E+01       5    7    1         0.7441745586E+02      0.1199405335E+03
          0                 2           2             5    6     1       0.5293653593E+00       5    6    1         0.2897237105E+02      0.4098887766E+02
          0                 3           2             5    6     1       0.2429289567E+00       5    6    1         0.1328114567E+02      0.2085334714E+02
          0                 4           2             5    8     1       0.1325711072E+00       5    8    1         0.7274857154E+01      0.9036591923E+01
          0                 5           2             5    8     1       0.7653314990E-01       5    8    1         0.4211202597E+01      0.4946720140E+01
          0                 6           2             5    8     1       0.4411617150E-01       5    8    1         0.2429992514E+01      0.2840562633E+01
          0                 7           2             5    8     1       0.2541546732E-01       5    8    1         0.1400479317E+01      0.1642229410E+01
          0                 8           2             5    8     1       0.1463880417E-01       5    8    1         0.8067672412E+00      0.9502588782E+00
          0                 9           2             5    8     1       0.8431016934E-02       5    8    1         0.4646706556E+00      0.5499413147E+00
          0                10           2             5    8     1       0.4855613947E-02       5    8    1         0.2676184401E+00      0.3182973261E+00
                                                   Max.-Head-Change                         Max.-Flux-Residual
  Residual-Control   Outer-Iter.   Inner-Iter.     Column Row Layer    Maximum-Head-Change  Column Row Layer    Maximum-Flux-Residual          L2-NORM 
          0                11           2             5    8     1       0.2796449916E-02       5    8    1         0.1541271987E+00      0.1842452645E+00
          0                12           1             5    8     1       0.1610542205E-02       5    8    1         0.8876509862E-01      0.1066621428E+00
          0                13           1             5    8     1       0.9275572474E-03       5    8    1         0.5112198896E-01      0.6175569131E-01
          0                14           1             5    8     1       0.5342117805E-03       5    8    1         0.2944265281E-01      0.3576000131E-01
          0                15           1             5    8     1       0.3076738533E-03       5    8    1         0.1695705062E-01      0.2070964463E-01
          0                16           1             5    8     1       0.1772034852E-03       5    8    1         0.9766256224E-02      0.1199507306E-01
          0                17           1             5    8     1       0.1020607059E-03       5    8    1         0.5624843791E-02      0.6948462852E-02
          0                18           1             5    8     1       0.5878270949E-04       5    8    1         0.3239645358E-02      0.4025599692E-02

    ------------------------------------------------
       NWT REQUIRED           18 OUTER ITERATIONS 
       AND A TOTAL OF         29 INNER ITERATIONS.
    ------------------------------------------------

 NO OUTPUT CONTROL FOR STRESS PERIOD    8   TIME STEP   24
 
 SOLVING FOR HEAD 
                                                   Max.-Head-Change                         Max.-Flux-Residual
  Residual-Control   Outer-Iter.   Inner-Iter.     Column Row Layer    Maximum-Head-Change  Column Row Layer    Maximum-Flux-Residual          L2-NORM 
          0                 1           2             4    6     1       0.1360977377E+01       4    6    1         0.7347190274E+02      0.1006617462E+03
          0                 2           2             5    6     1      -0.1790123047E+01       5    6    1        -0.9880581557E+02      0.2164639465E+03
          0                 3           2             4    8     1      -0.8574024745E+00       4    8    1        -0.4720248141E+02      0.6839727166E+02
          0                 4           2             4    6     1      -0.2682111935E+00       4    6    1        -0.1494419683E+02      0.1775990273E+02
          0                 5           2             4    6     1      -0.1600191894E+00       4    6    1        -0.8945376936E+01      0.9078571261E+01
          0                 6           2             4    6     1      -0.9531641733E-01       4    6    1        -0.5334888358E+01      0.5348826946E+01
          0                 7           2             4    6     1      -0.5673912196E-01       4    6    1        -0.3177237473E+01      0.3179311358E+01
          0                 8           2             4    6     1      -0.3376632435E-01       4    6    1        -0.1891174528E+01      0.1891619266E+01
          0                 9           2             4    6     1      -0.2009268402E-01       4    6    1        -0.1125421803E+01      0.1125564252E+01
          0                10           2             4    6     1      -0.1195561030E-01       4    6    1        -0.6696660949E+00      0.6697280271E+00
                                                   Max.-Head-Change                         Max.-Flux-Residual
  Residual-Control   Outer-Iter.   Inner-Iter.     Column Row Layer    Maximum-Head-Change  Column Row Layer    Maximum-Flux-Residual          L2-NORM 
          0                11           2             4    6     1      -0.7113704181E-02       4    6    1        -0.3984588565E+00      0.3984908657E+00
          0                12           2             4    6     1      -0.4232669264E-02       4    6    1        -0.2370827517E+00      0.2371007002E+00
          0                13           2             4    6     1      -0.2518425030E-02       4    6    1        -0.1410624263E+00      0.1410728494E+00
          0                14           2             4    6     1      -0.1498444079E-02       4    6    1        -0.8393035898E-01      0.8393650002E-01
          0                15           2             4    6     1      -0.8915570381E-03       4    6    1        -0.4993714505E-01      0.4994078446E-01
          0                16           2             4    6     1      -0.5304627650E-03       4    6    1        -0.2971155980E-01      0.2971372174E-01
          0                17           2             4    6     1      -0.3156151881E-03       4    6    1        -0.1767764422E-01      0.1767892970E-01
          0                18           2             4    6     1      -0.1877837964E-03       4    6    1        -0.1051769447E-01      0.1051845909E-01
          0                19           2             4    6     1      -0.1117263398E-03       4    6    1        -0.6257688591E-02      0.6258143475E-02
          0                20           1             4    6     1      -0.6647376342E-04       4    6    1        -0.3723098973E-02      0.3723369601E-02

    ------------------------------------------------
       NWT REQUIRED           20 OUTER ITERATIONS 
       AND A TOTAL OF         39 INNER ITERATIONS.
    ------------------------------------------------

 NO OUTPUT CONTROL FOR STRESS PERIOD    8   TIME STEP   25
 
 SOLVING FOR HEAD 
                                                   Max.-Head-Change                         Max.-Flux-Residual
  Residual-Control   Outer-Iter.   Inner-Iter.     Column Row Layer    Maximum-Head-Change  Column Row Layer    Maximum-Flux-Residual          L2-NORM 
          0                 1           2             4    8     1       0.1215457445E+01       4    8    1         0.6512522073E+02      0.1142386312E+03
          0                 2           2             5    6     1       0.4481454203E+00       5    6    1         0.2441983424E+02      0.3852461127E+02
          0                 3           2             5    8     1       0.2326440784E+00       5    8    1         0.1268964308E+02      0.2141576378E+02
          0                 4           2             5    8     1       0.1347700836E+00       5    8    1         0.7397724024E+01      0.1001601770E+02
          0                 5           2             5    8     1       0.7779889091E-01       5    8    1         0.4280832803E+01      0.5594631535E+01
          0                 6           2             5    8     1       0.4485118433E-01       5    8    1         0.2470182131E+01      0.3229334660E+01
          0                 7           2             5    8     1       0.2584372994E-01       5    8    1         0.1423841991E+01      0.1872517039E+01
          0                 8           2             5    8     1       0.1488865763E-01       5    8    1         0.8203852211E+00      0.1086410795E+01
          0                 9           2             5    8     1       0.8576857440E-02       5    8    1         0.4726167729E+00      0.6304061170E+00
          0                10           2             5    8     1       0.4940759103E-02       5    8    1         0.2722569037E+00      0.3658431878E+00
                                                   Max.-Head-Change                         Max.-Flux-Residual
  Residual-Control   Outer-Iter.   Inner-Iter.     Column Row Layer    Maximum-Head-Change  Column Row Layer    Maximum-Flux-Residual          L2-NORM 
          0                11           2             5    8     1       0.2846164360E-02       5    8    1         0.1568353131E+00      0.2123358690E+00
          0                12           1             5    8     1       0.1639570940E-02       5    8    1         0.9034632826E-01      0.1232562905E+00
          0                13           1             5    8     1       0.9445080319E-03       5    8    1         0.5204529058E-01      0.7155725465E-01
          0                14           1             5    8     1       0.5441101833E-03       5    8    1         0.2998180030E-01      0.4154872011E-01
          0                15           1             5    8     1       0.3134541894E-03       5    8    1         0.1727188699E-01      0.2412799163E-01
          0                16           1             4    7     1       0.1814999245E-03       5    8    1         0.9950110913E-02      0.1401342189E-01
          0                17           1             4    7     1       0.1063032151E-03       4    7    1         0.5775559955E-02      0.8140040859E-02
          0                18           1             4    7     1       0.6226013801E-04       4    7    1         0.3382697156E-02      0.4728987269E-02

    ------------------------------------------------
       NWT REQUIRED           18 OUTER ITERATIONS 
       AND A TOTAL OF         29 INNER ITERATIONS.
    ------------------------------------------------

 NO OUTPUT CONTROL FOR STRESS PERIOD    8   TIME STEP   26
 
 SOLVING FOR HEAD 
                                                   Max.-Head-Change                         Max.-Flux-Residual
  Residual-Control   Outer-Iter.   Inner-Iter.     Column Row Layer    Maximum-Head-Change  Column Row Layer    Maximum-Flux-Residual          L2-NORM 
          0                 1           2             4    6     1       0.1536649809E+01       4    6    1         0.8300367567E+02      0.1092161440E+03
          0                 2           2             5    6     1      -0.1787181965E+01       5    6    1        -0.9880305413E+02      0.2123875343E+03
          0                 3           2             4    8     1      -0.8643185691E+00       4    8    1        -0.4757377614E+02      0.6754549139E+02
          0                 4           2             4    6     1      -0.2574144638E+00       4    6    1        -0.1434057325E+02      0.1630806311E+02
          0                 5           2             4    6     1      -0.1535881450E+00       4    6    1        -0.8585413842E+01      0.8711336998E+01
          0                 6           2             4    6     1      -0.9148824314E-01       4    6    1        -0.5120513334E+01      0.5134439538E+01
          0                 7           2             4    6     1      -0.5446093381E-01       4    6    1        -0.3049637738E+01      0.3051695312E+01
          0                 8           2             4    6     1      -0.3241069326E-01       4    6    1        -0.1815241779E+01      0.1815678221E+01
          0                 9           2             4    6     1      -0.1928605510E-01       4    6    1        -0.1080239411E+01      0.1080377811E+01
          0                10           2             4    6     1      -0.1147565947E-01       4    6    1        -0.6427821828E+00      0.6428419702E+00
                                                   Max.-Head-Change                         Max.-Flux-Residual
  Residual-Control   Outer-Iter.   Inner-Iter.     Column Row Layer    Maximum-Head-Change  Column Row Layer    Maximum-Flux-Residual          L2-NORM 
          0                11           2             4    6     1      -0.6828132933E-02       4    6    1        -0.3824629954E+00      0.3824937967E+00
          0                12           2             4    6     1      -0.4062755509E-02       4    6    1        -0.2275653572E+00      0.2275826038E+00
          0                13           2             4    6     1      -0.2417327738E-02       4    6    1        -0.1353997063E+00      0.1354097158E+00
          0                14           2             4    6     1      -0.1438292415E-02       4    6    1        -0.8056114076E-01      0.8056703669E-01
          0                15           2             4    6     1      -0.8557677554E-03       4    6    1        -0.4793253276E-01      0.4793602657E-01
          0                16           2             4    6     1      -0.5091688472E-03       4    6    1        -0.2851886623E-01      0.2852094159E-01
          0                17           2             4    6     1      -0.3029458070E-03       4    6    1        -0.1696802622E-01      0.1696926021E-01
          0                18           2             4    6     1      -0.1802458600E-03       4    6    1        -0.1009549506E-01      0.1009622906E-01
          0                19           2             4    6     1      -0.1072415015E-03       4    6    1        -0.6006495392E-02      0.6006932052E-02
          0                20           1             4    6     1      -0.6380544069E-04       4    6    1        -0.3573649160E-02      0.3573908969E-02

    ------------------------------------------------
       NWT REQUIRED           20 OUTER ITERATIONS 
       AND A TOTAL OF         39 INNER ITERATIONS.
    ------------------------------------------------

 NO OUTPUT CONTROL FOR STRESS PERIOD    8   TIME STEP   27
 
 SOLVING FOR HEAD 
                                                   Max.-Head-Change                         Max.-Flux-Residual
  Residual-Control   Outer-Iter.   Inner-Iter.     Column Row Layer    Maximum-Head-Change  Column Row Layer    Maximum-Flux-Residual          L2-NORM 
          0                 1           2             4    8     1       0.1214751420E+01       4    8    1         0.6510422178E+02      0.1136426967E+03
          0                 2           2             5    6     1       0.4322277254E+00       5    6    1         0.2353973395E+02      0.3773182053E+02
          0                 3           2             5    6     1       0.2603170398E+00       5    6    1         0.1422854826E+02      0.2252346574E+02
          0                 4           2             5    8     1       0.1359019680E+00       5    8    1         0.7460092679E+01      0.9995743525E+01
          0                 5           2             5    8     1       0.7844985786E-01       5    8    1         0.4316761468E+01      0.5509540075E+01
          0                 6           2             5    8     1       0.4522500463E-01       5    8    1         0.2490839701E+01      0.3172343018E+01
          0                 7           2             5    8     1       0.2605819811E-01       5    8    1         0.1435702240E+01      0.1838005118E+01
          0                 8           2             5    8     1       0.1501163775E-01       5    8    1         0.8271888587E+00      0.1065784952E+01
          0                 9           2             5    8     1       0.8647355160E-02       5    8    1         0.4765178452E+00      0.6181061315E+00
          0                10           2             5    8     1       0.4981163621E-02       5    8    1         0.2744930851E+00      0.3585136080E+00
                                                   Max.-Head-Change                         Max.-Flux-Residual
  Residual-Control   Outer-Iter.   Inner-Iter.     Column Row Layer    Maximum-Head-Change  Column Row Layer    Maximum-Flux-Residual          L2-NORM 
          0                11           2             5    8     1       0.2869318060E-02       5    8    1         0.1581169070E+00      0.2079705115E+00
          0                12           1             5    8     1       0.1652837402E-02       5    8    1         0.9108072703E-01      0.1206576782E+00
          0                13           1             5    8     1       0.9521084421E-03       5    8    1         0.5246607400E-01      0.7001110654E-01
          0                14           1             5    8     1       0.5484639660E-03       5    8    1         0.3022286459E-01      0.4062921288E-01
          0                15           1             5    8     1       0.3159478858E-03       5    8    1         0.1740997465E-01      0.2358140350E-01
          0                16           1             5    8     1       0.1820072294E-03       5    8    1         0.1002920133E-01      0.1368865430E-01
          0                17           1             5    8     1       0.1048498399E-03       5    8    1         0.5777506049E-02      0.7947155728E-02
          0                18           1             5    8     1       0.6040222765E-04       5    8    1         0.3328284408E-02      0.4614477021E-02

    ------------------------------------------------
       NWT REQUIRED           18 OUTER ITERATIONS 
       AND A TOTAL OF         29 INNER ITERATIONS.
    ------------------------------------------------

 NO OUTPUT CONTROL FOR STRESS PERIOD    8   TIME STEP   28
 
 SOLVING FOR HEAD 
                                                   Max.-Head-Change                         Max.-Flux-Residual
  Residual-Control   Outer-Iter.   Inner-Iter.     Column Row Layer    Maximum-Head-Change  Column Row Layer    Maximum-Flux-Residual          L2-NORM 
          0                 1           2             4    6     1       0.1526411869E+01       4    6    1         0.8239405371E+02      0.1102120241E+03
          0                 2           2             5    6     1      -0.1786742874E+01       5    6    1        -0.9877112855E+02      0.2123439836E+03
          0                 3           2             4    8     1      -0.8710405916E+00       4    8    1        -0.4795273928E+02      0.6691374029E+02
          0                 4           2             4    6     1      -0.2621959912E+00       4    6    1        -0.1460952661E+02      0.1611806395E+02
          0                 5           2             4    6     1      -0.1564275495E+00       4    6    1        -0.8744716451E+01      0.8861725250E+01
          0                 6           2             4    6     1      -0.9317656703E-01       4    6    1        -0.5215137276E+01      0.5228558599E+01
          0                 7           2             4    6     1      -0.5546534522E-01       4    6    1        -0.3105907056E+01      0.3107912410E+01
          0                 8           2             4    6     1      -0.3300835802E-01       4    6    1        -0.1848718261E+01      0.1849149890E+01
          0                 9           2             4    6     1      -0.1964171795E-01       4    6    1        -0.1100159275E+01      0.1100297983E+01
          0                10           2             4    6     1      -0.1168731611E-01       4    6    1        -0.6546361348E+00      0.6546965675E+00
                                                   Max.-Head-Change                         Max.-Flux-Residual
  Residual-Control   Outer-Iter.   Inner-Iter.     Column Row Layer    Maximum-Head-Change  Column Row Layer    Maximum-Flux-Residual          L2-NORM 
          0                11           2             4    6     1      -0.6954091806E-02       4    6    1        -0.3895172435E+00      0.3895485107E+00
          0                12           2             4    6     1      -0.4137714798E-02       4    6    1        -0.2317633445E+00      0.2317808851E+00
          0                13           2             4    6     1      -0.2461936530E-02       4    6    1        -0.1378979287E+00      0.1379081170E+00
          0                14           2             4    6     1      -0.1464839275E-02       4    6    1        -0.8204782690E-01      0.8205383008E-01
          0                15           2             4    6     1      -0.8715657982E-03       4    6    1        -0.4881725136E-01      0.4882080920E-01
          0                16           2             4    6     1      -0.5185702081E-03       4    6    1        -0.2904535420E-01      0.2904746771E-01
          0                17           2             4    6     1      -0.3085404892E-03       4    6    1        -0.1728133247E-01      0.1728258917E-01
          0                18           2             4    6     1      -0.1835751940E-03       4    6    1        -0.1028193842E-01      0.1028268595E-01
          0                19           2             4    6     1      -0.1092227390E-03       4    6    1        -0.6117444051E-02      0.6117888780E-02
          0                20           1             4    6     1      -0.6498443824E-04       4    6    1        -0.3639672035E-02      0.3639936628E-02

    ------------------------------------------------
       NWT REQUIRED           20 OUTER ITERATIONS 
       AND A TOTAL OF         39 INNER ITERATIONS.
    ------------------------------------------------

 NO OUTPUT CONTROL FOR STRESS PERIOD    8   TIME STEP   29
 
 SOLVING FOR HEAD 
                                                   Max.-Head-Change                         Max.-Flux-Residual
  Residual-Control   Outer-Iter.   Inner-Iter.     Column Row Layer    Maximum-Head-Change  Column Row Layer    Maximum-Flux-Residual          L2-NORM 
          0                 1           2             4    8     1       0.1214600915E+01       4    8    1         0.6511294061E+02      0.1128697780E+03
          0                 2           2             5    6     1       0.4177642143E+00       5    6    1         0.2273142660E+02      0.3719714958E+02
          0                 3           2             5    6     1       0.2740130848E+00       5    6    1         0.1498185276E+02      0.2286193768E+02
          0                 4           2             5    8     1       0.1367242877E+00       5    8    1         0.7504928764E+01      0.1037175761E+02
          0                 5           2             5    8     1       0.7892655246E-01       5    8    1         0.4342911475E+01      0.5468146689E+01
          0                 6           2             5    8     1       0.4549979389E-01       5    8    1         0.2505983006E+01      0.3124617214E+01
          0                 7           2             5    8     1       0.2621606426E-01       5    8    1         0.1444424695E+01      0.1807697273E+01
          0                 8           2             5    8     1       0.1510216941E-01       5    8    1         0.8321976601E+00      0.1047575088E+01
          0                 9           2             5    8     1       0.8699224827E-02       5    8    1         0.4793895836E+00      0.6072452790E+00
          0                10           2             5    8     1       0.5010867538E-02       5    8    1         0.2761382393E+00      0.3520442588E+00
                                                   Max.-Head-Change                         Max.-Flux-Residual
  Residual-Control   Outer-Iter.   Inner-Iter.     Column Row Layer    Maximum-Head-Change  Column Row Layer    Maximum-Flux-Residual          L2-NORM 
          0                11           2             5    8     1       0.2886323444E-02       5    8    1         0.1590589683E+00      0.2041190476E+00
          0                12           1             5    8     1       0.1662570892E-02       5    8    1         0.9162003233E-01      0.1183657756E+00
          0                13           1             5    8     1       0.9576786987E-03       5    8    1         0.5277475093E-01      0.6864785477E-01
          0                14           1             5    8     1       0.5516511818E-03       5    8    1         0.3039950897E-01      0.3981868303E-01
          0                15           1             5    8     1       0.3177712722E-03       5    8    1         0.1751104548E-01      0.2309970041E-01
          0                16           1             5    8     1       0.1830502089E-03       5    8    1         0.1008702195E-01      0.1340249213E-01
          0                17           1             5    8     1       0.1054463276E-03       5    8    1         0.5810578741E-02      0.7777224806E-02
          0                18           1             5    8     1       0.6074330583E-04       5    8    1         0.3347198466E-02      0.4513606306E-02

    ------------------------------------------------
       NWT REQUIRED           18 OUTER ITERATIONS 
       AND A TOTAL OF         29 INNER ITERATIONS.
    ------------------------------------------------

 NO OUTPUT CONTROL FOR STRESS PERIOD    8   TIME STEP   30



 STREAM LISTING     PERIOD      8   STEP       30

 LAYER ROW COL. STREAM  RCH.  FLOW INTO     FLOW TO   FLOW OUT OF   OVRLND.     DIRECT     STREAM       STREAM     STREAM     STREAM   STREAMBED  STREAMBED
                SEG.NO.  NO.  STRM. RCH.    AQUIFER    STRM. RCH.    RUNOFF     PRECIP       ET          HEAD       DEPTH      WIDTH   CONDCTNC.   GRADIENT

   1    1    1     1     1    2.8125E+01  2.5915E-01   2.7866E+01  0.000E+00  0.000E+00  0.000E+00  1.09427E+03  1.223E+00  1.364E+01  6.137E-02  1.408E+00
   1    2    2     1     2    2.7866E+01  4.0087E-01   2.7465E+01  0.000E+00  0.000E+00  0.000E+00  1.08928E+03  1.218E+00  1.358E+01  9.503E-02  1.406E+00
   1    3    3     1     3    2.7465E+01  3.4142E-01   2.7123E+01  0.000E+00  0.000E+00  0.000E+00  1.08363E+03  1.213E+00  1.351E+01  8.103E-02  1.404E+00
   1    3    4     1     4    2.7123E+01  3.1403E-01   2.6809E+01  0.000E+00  0.000E+00  0.000E+00  1.07862E+03  1.209E+00  1.344E+01  7.461E-02  1.403E+00
   1    4    5     2     1    2.4809E+01  3.2739E-01   2.4482E+01  0.000E+00  0.000E+00  0.000E+00  1.07313E+03  1.197E+00  1.200E+01  7.800E-02  1.399E+00
   1    5    6     2     2    2.4482E+01  2.5133E-01   2.4231E+01  0.000E+00  0.000E+00  0.000E+00  1.06770E+03  1.189E+00  1.200E+01  6.000E-02  1.396E+00
   1    6    6     2     3    2.4231E+01  2.5089E-01   2.3980E+01  0.000E+00  0.000E+00  0.000E+00  1.06297E+03  1.181E+00  1.200E+01  6.000E-02  1.394E+00
   1    7    6     2     4    2.3980E+01  2.5044E-01   2.3729E+01  0.000E+00  0.000E+00  0.000E+00  1.05825E+03  1.174E+00  1.200E+01  6.000E-02  1.391E+00
   1    8    6     2     5    2.3729E+01  2.5000E-01   2.3479E+01  0.000E+00  0.000E+00  0.000E+00  1.05353E+03  1.167E+00  1.200E+01  6.000E-02  1.389E+00
   1    3    5     3     1    2.0000E+00  2.8252E-01   1.7175E+00  0.000E+00  0.000E+00  0.000E+00  1.07555E+03  1.909E+00  9.636E+00  7.227E-02  1.955E+00
   1    3    6     3     2    1.7175E+00  2.4905E-01   1.4684E+00  0.000E+00  0.000E+00  0.000E+00  1.07264E+03  1.727E+00  8.909E+00  6.682E-02  1.864E+00
   1    3    7     3     3    1.4684E+00  1.9718E-01   1.2712E+00  0.000E+00  0.000E+00  0.000E+00  1.06987E+03  1.555E+00  8.218E+00  5.547E-02  1.777E+00
   1    4    8     3     4    1.2712E+00  2.2567E-01   1.0456E+00  0.000E+00  0.000E+00  0.000E+00  1.06682E+03  1.364E+00  7.455E+00  6.709E-02  1.682E+00
   1    5    8     3     5    1.0456E+00  1.5790E-01   8.8768E-01  0.000E+00  0.000E+00  0.000E+00  1.06362E+03  1.164E+00  6.655E+00  4.991E-02  1.582E+00
   1    6    8     3     6    8.8768E-01  5.5980E-02   8.3170E-01  0.000E+00  0.000E+00  0.000E+00  1.06158E+03  1.036E+00  6.145E+00  1.844E-02  1.518E+00
   1    5   10     4     1    1.0000E+01  9.0919E-02   9.9091E+00  0.000E+00  0.000E+00  0.000E+00  1.07836E+03  6.368E-01  1.000E+01  2.500E-02  1.212E+00
   1    5    9     4     2    9.9091E+00  1.8158E-01   9.7275E+00  0.000E+00  0.000E+00  0.000E+00  1.07154E+03  6.315E-01  1.000E+01  5.000E-02  1.211E+00
   1    6    8     4     3    9.7275E+00  1.2689E-01   9.6006E+00  0.000E+00  0.000E+00  0.000E+00  1.06381E+03  6.256E-01  1.000E+01  3.500E-02  1.209E+00
   1    6    8     5     1    1.0432E+01  2.2686E-01   1.0205E+01  0.000E+00  0.000E+00  0.000E+00  1.05868E+03  6.790E-01  1.542E+01  6.166E-02  1.226E+00
   1    7    7     5     2    1.0205E+01  2.7894E-01   9.9265E+00  0.000E+00  0.000E+00  0.000E+00  1.05417E+03  6.732E-01  1.519E+01  7.594E-02  1.224E+00
   1    8    7     5     3    9.9265E+00  1.9221E-01   9.7343E+00  0.000E+00  0.000E+00  0.000E+00  1.04992E+03  6.676E-01  1.497E+01  5.241E-02  1.223E+00
   1    8    6     5     4    9.7343E+00  1.3577E-01   9.5985E+00  0.000E+00  0.000E+00  0.000E+00  1.04691E+03  6.637E-01  1.482E+01  3.706E-02  1.221E+00
   1    9    6     6     1    1.2771E+01  2.2870E-01   1.2542E+01  0.000E+00  0.000E+00  0.000E+00  1.04354E+03  8.116E-01  1.200E+01  6.000E-02  1.271E+00
   1   10    7     6     2    1.2542E+01  2.2817E-01   1.2314E+01  0.000E+00  0.000E+00  0.000E+00  1.03898E+03  8.028E-01  1.200E+01  6.000E-02  1.268E+00
   1   11    7     6     3    1.2314E+01  2.2764E-01   1.2086E+01  0.000E+00  0.000E+00  0.000E+00  1.03443E+03  7.939E-01  1.200E+01  6.000E-02  1.265E+00
   1   12    7     6     4    1.2086E+01  2.2710E-01   1.1859E+01  0.000E+00  0.000E+00  0.000E+00  1.02988E+03  7.850E-01  1.200E+01  6.000E-02  1.262E+00
   1   13    7     6     5    1.1859E+01 -3.3287E-02   1.1893E+01  0.000E+00  0.000E+00  0.000E+00  1.02669E+03  7.812E-01  1.200E+01  2.400E-01 -4.623E-02
   1   14    9     7     1    1.5000E+02  1.3683E+00   1.4863E+02  0.000E+00  0.000E+00  0.000E+00  1.03987E+03  2.288E+00  5.529E+01  5.593E-01  8.155E-01
   1   13    8     7     2    1.4863E+02  1.9179E+00   1.4671E+02  0.000E+00  0.000E+00  0.000E+00  1.03478E+03  2.279E+00  5.526E+01  6.148E-01  1.040E+00
   1   13    7     7     3    1.4671E+02  1.5970E+00   1.4512E+02  0.000E+00  0.000E+00  0.000E+00  1.02969E+03  2.270E+00  5.521E+01  5.584E-01  9.533E-01
   1   13    6     8     1    1.5701E+02  9.6887E-01   1.5604E+02  0.000E+00  0.000E+00  0.000E+00  1.02474E+03  2.862E+00  4.150E+01  4.229E-01  7.636E-01
   1   13    5     8     2    1.5604E+02  2.3439E-01   1.5581E+02  0.000E+00  0.000E+00  0.000E+00  1.01848E+03  2.858E+00  4.144E+01  4.223E-01  1.850E-01
   1   13    4     8     3    1.5581E+02 -2.1853E+00   1.5799E+02  0.000E+00  0.000E+00  0.000E+00  1.01224E+03  2.865E+00  4.154E+01  4.233E+00 -1.721E-01
   1   13    3     8     4    1.5799E+02 -3.5363E+00   1.6153E+02  0.000E+00  0.000E+00  0.000E+00  1.00601E+03  2.884E+00  4.182E+01  4.262E+00 -2.766E-01
   1   13    2     8     5    1.6153E+02 -2.5489E+00   1.6408E+02  0.000E+00  0.000E+00  0.000E+00  9.99780E+02  2.905E+00  4.212E+01  4.292E+00 -1.980E-01
   1   13    1     8     6    1.6408E+02 -1.9843E+00   1.6606E+02  0.000E+00  0.000E+00  0.000E+00  9.94795E+02  2.920E+00  4.234E+01  2.589E+00 -2.555E-01
   1    8    6     9     1    2.0307E+01  0.0000E+00   2.0307E+01  0.000E+00  0.000E+00  0.000E+00  1.08222E+03  3.466E+00  4.000E+00  0.000E+00  2.155E+00
   1    8    5     9     2    2.0307E+01  0.0000E+00   2.0307E+01  0.000E+00  0.000E+00  0.000E+00  1.08172E+03  3.466E+00  4.000E+00  0.000E+00  2.155E+00





UNSATURATED ZONE PACKAGE VOLUMETRIC BUDGET FOR  TIME STEP    30 STRESS PERIOD    8
  ------------------------------------------------------------------------------



     CUMULATIVE VOLUMES      L**3       RATES FOR THIS TIME STEP      L**3/T
     ------------------                 ------------------------

           IN:                                      IN:
           ---                                      ---
        INFILTRATION =  2262817244.4959          INFILTRATION =          21.1548

          OUT:                                     OUT:
          ----                                     ----
              UZF ET =   262264345.0256                UZF ET =          61.0004
        UZF RECHARGE =  1255972823.3984          UZF RECHARGE =         440.7719

            IN - OUT =   744580076.0718              IN - OUT =        -480.6175

          STORAGE:                                 STORAGE:
          --------                                 --------
      STORAGE CHANGE =   744754315.4606        STORAGE CHANGE =        -480.6175

 PERCENT DISCREPANCY IS DIFFERENCE BETWEEN IN-OUT MINUS CHANGE IN STORAGE
 DIVIDED BY THE AVERAGE OF IN AND OUT TIMES 100

 PERCENT DISCREPANCY =          -0.00     PERCENT DISCREPANCY =           0.00






1
  VOLUMETRIC BUDGET FOR AGRICULTURAL FIELDS AT  END OF TIME STEP   30, STRESS PERIOD   8
  ------------------------------------------------------------------------------

     CUMULATIVE VOLUMES      L**3       RATES FOR THIS TIME STEP      L**3/T
     ------------------                 ------------------------

           IN:                                      IN:
           ---                                      ---
               AG WELLS  =  2101344768.0000                 AG WELLS  =           0.0000
      DIVERSION SEGMENTS =   145801712.0000        DIVERSION SEGMENTS =          20.3069
           GW IRRIGATION =           0.0000             GW IRRIGATION =           0.0000
           SW IRRIGATION =           0.0000             SW IRRIGATION =           0.0000
        SYSTEM LOSSES GW =           0.0000          SYSTEM LOSSES GW =           0.0000
        SYSTEM LOSSES SW =           0.0000          SYSTEM LOSSES SW =           0.0000

                TOTAL IN =  2247146496.0000                  TOTAL IN =          20.3069

          OUT:                                     OUT:
          ----                                     ----
               AG WELLS  =           0.0000                 AG WELLS  =           0.0000
      DIVERSION SEGMENTS =           0.0000        DIVERSION SEGMENTS =           0.0000
           GW IRRIGATION =  2101344768.0000             GW IRRIGATION =           0.0000
           SW IRRIGATION =   145804512.0000             SW IRRIGATION =          20.3073
        SYSTEM LOSSES GW =           0.0000          SYSTEM LOSSES GW =           0.0000
        SYSTEM LOSSES SW =           0.0000          SYSTEM LOSSES SW =           0.0000

               TOTAL OUT =  2247149312.0000                 TOTAL OUT =          20.3073

                IN - OUT =       -2816.0000                  IN - OUT =      -4.0627E-04

     PERCENT DISCREPANCY =          -0.00         PERCENT DISCREPANCY =          -0.00



1
  VOLUMETRIC BUDGET FOR ENTIRE MODEL AT END OF TIME STEP   30, STRESS PERIOD   8
  ------------------------------------------------------------------------------

     CUMULATIVE VOLUMES      L**3       RATES FOR THIS TIME STEP      L**3/T
     ------------------                 ------------------------

           IN:                                      IN:
           ---                                      ---
             STORAGE     =  2269857536.0000               STORAGE     =          28.7496
       CONSTANT HEAD     =           0.0000         CONSTANT HEAD     =           0.0000
     HEAD DEP BOUNDS     =     5324798.5000       HEAD DEP BOUNDS     =           0.2880
      STREAM LEAKAGE     =   219535360.0000        STREAM LEAKAGE     =          12.0449
        UZF RECHARGE     =  1255972480.0000          UZF RECHARGE     =         440.7719
               GW ET     =           0.0000                 GW ET     =           0.0000
     SURFACE LEAKAGE     =           0.0000       SURFACE LEAKAGE     =           0.0000
           AG WELLS      =           0.0000             AG WELLS      =           0.0000

                TOTAL IN =  3750690304.0000                  TOTAL IN =         481.8544

          OUT:                                     OUT:
          ----                                     ----
             STORAGE     =  1453206528.0000               STORAGE     =         471.2751
       CONSTANT HEAD     =           0.0000         CONSTANT HEAD     =           0.0000
     HEAD DEP BOUNDS     =     5333876.5000       HEAD DEP BOUNDS     =           0.2873
      STREAM LEAKAGE     =   190796080.0000        STREAM LEAKAGE     =          10.2881
        UZF RECHARGE     =           0.0000          UZF RECHARGE     =           0.0000
               GW ET     =           0.0000                 GW ET     =           0.0000
     SURFACE LEAKAGE     =           0.0000       SURFACE LEAKAGE     =           0.0000
           AG WELLS      =  2101344768.0000             AG WELLS      =           0.0000

               TOTAL OUT =  3750681088.0000                 TOTAL OUT =         481.8506

                IN - OUT =        9216.0000                  IN - OUT =       3.7842E-03

     PERCENT DISCREPANCY =           0.00         PERCENT DISCREPANCY =           0.00






         TIME SUMMARY AT END OF TIME STEP   30 IN STRESS PERIOD    8
                    SECONDS     MINUTES      HOURS       DAYS        YEARS
                    -----------------------------------------------------------
   TIME STEP LENGTH  87667.      1461.1      24.352      1.0147     2.77799E-03
 STRESS PERIOD TIME 2.63000E+06  43833.      730.56      30.440     8.33397E-02
         TOTAL TIME 1.84964E+07 3.08274E+05  5137.9      214.08     0.58612    
1
1
                            STRESS PERIOD NO.    9, LENGTH =   2630000.    
                            -----------------------------------------------

                              NUMBER OF TIME STEPS =    30

                               MULTIPLIER FOR DELT =     1.000

                            INITIAL TIME STEP SIZE =   87666.66    

 REUSING NON-PARAMETER GHB CELLS FROM LAST STRESS PERIOD

      2 GHB CELLS

 REUSING STREAM SEGMENT DATA FROM LAST STRESS PERIOD



            AREAL INFILTRATION RATE
 READING ON UNIT   19 WITH FORMAT: (FREE)              

            1           2           3           4           5           6           7           8           9          10
 ........................................................................................................................
   1   1.0000E-10  2.0000E-10   0.000       0.000       0.000       0.000       0.000       0.000       0.000       0.000    
   2   2.0000E-10  1.0000E-10  2.0000E-10   0.000       0.000      8.0000E-10  8.0000E-10  5.0000E-10   0.000       0.000    
   3    0.000      5.0000E-10  1.0000E-10  1.0000E-10  8.0000E-10  8.0000E-10  5.0000E-10  5.0000E-10   0.000       0.000    
   4   8.0000E-10  5.0000E-10  1.0000E-10  1.0000E-10  1.0000E-10  1.0000E-10  1.0000E-10  1.0000E-10  2.0000E-10   0.000    
   5   8.0000E-10  5.0000E-10  1.0000E-10  1.0000E-10  1.0000E-10  1.0000E-10  1.0000E-10  1.0000E-10  1.0000E-10  1.0000E-10
   6   8.0000E-10  5.0000E-10  5.0000E-10  2.0000E-10  2.0000E-10  1.0000E-10  1.0000E-10  1.0000E-10  1.0000E-10  5.0000E-10
   7   8.0000E-10  5.0000E-10  5.0000E-10  2.0000E-10  2.0000E-10  1.0000E-10  1.0000E-10  2.0000E-10  2.0000E-10   0.000    
   8    0.000      5.0000E-10  5.0000E-10  2.0000E-10  2.0000E-10  1.0000E-10  1.0000E-10  2.0000E-10  5.0000E-10   0.000    
   9    0.000      5.0000E-10  5.0000E-10  2.0000E-10  2.0000E-10  1.0000E-10  1.0000E-10  2.0000E-10  5.0000E-10   0.000    
  10    0.000      5.0000E-10  5.0000E-10  2.0000E-10  2.0000E-10  1.0000E-10  1.0000E-10  2.0000E-10  5.0000E-10  8.0000E-10
  11    0.000      1.0000E-10  1.0000E-10  1.0000E-10  1.0000E-10  1.0000E-10  1.0000E-10  2.0000E-10  5.0000E-10   0.000    
  12   1.0000E-10  1.0000E-10  1.0000E-10  1.0000E-10  1.0000E-10  1.0000E-10  1.0000E-10  1.0000E-10  2.0000E-10   0.000    
  13   1.0000E-10  1.0000E-10  2.0000E-10  2.0000E-10  2.0000E-10  2.0000E-10  2.0000E-10  1.0000E-10  1.0000E-10   0.000    
  14    0.000      2.0000E-10  5.0000E-10  5.0000E-10  5.0000E-10  5.0000E-10  5.0000E-10  2.0000E-10  1.0000E-10   0.000    
  15    0.000       0.000      8.0000E-10  8.0000E-10  8.0000E-10  8.0000E-10   0.000       0.000       0.000       0.000    

                  ET RATE =  3.250000E-07

 USING ET EXTINCTION DEPTH FROM PREVIOUS STRESS PERIOD. CURRENT PERIOD IS:       9

 USING EXTINCTION WATER CONTENT FROM PREVIOUS STRESS PERIOD. CURRENT PERIOD IS:       9

 USING AIR ENTRY PRESSURE FROM PREVIOUS STRESS PERIOD. CURRENT PERIOD IS:       9

 USING ROOT PRESSURE HEAD FROM PREVIOUS STRESS PERIOD. CURRENT PERIOD IS:       9

 USING ROOT ACTIVITY FROM PREVIOUS STRESS PERIOD. CURRENT PERIOD IS:       9

 PROCESSING AG STRESS PERIOD DATA

 READING AG STRESS PERIOD DATA

 READING IRRIGATION SEGMENT

 READING IRRIGATION WELL

 READING SUPPLEMENTAL WELL

 END PROCESSING AG STRESS PERIOD DATA OPTIONS
 
 SOLVING FOR HEAD 
                                                   Max.-Head-Change                         Max.-Flux-Residual
  Residual-Control   Outer-Iter.   Inner-Iter.     Column Row Layer    Maximum-Head-Change  Column Row Layer    Maximum-Flux-Residual          L2-NORM 
          0                 1           2             4    6     1       0.1515488831E+01       4    6    1         0.8175298593E+02      0.1111016157E+03
          0                 2           2             5    6     1      -0.1786415299E+01       5    6    1        -0.9874667267E+02      0.2123473946E+03
          0                 3           2             4    8     1      -0.8778043592E+00       4    8    1        -0.4833351789E+02      0.6643619398E+02
          0                 4           2             4    6     1      -0.2674433702E+00       4    6    1        -0.1490450067E+02      0.1654163074E+02
          0                 5           2             4    6     1      -0.1595445899E+00       4    6    1        -0.8919551975E+01      0.9033146188E+01
          0                 6           2             4    6     1      -0.9503023261E-01       4    6    1        -0.5319016595E+01      0.5331971069E+01
          0                 7           2             4    6     1      -0.5656819405E-01       4    6    1        -0.3167687769E+01      0.3169643887E+01
          0                 8           2             4    6     1      -0.3366462115E-01       4    6    1        -0.1885475839E+01      0.1885903231E+01
          0                 9           2             4    6     1      -0.2003226178E-01       4    6    1        -0.1122032271E+01      0.1122171480E+01
          0                10           2             4    6     1      -0.1191973533E-01       4    6    1        -0.6676526736E+00      0.6677138432E+00
                                                   Max.-Head-Change                         Max.-Flux-Residual
  Residual-Control   Outer-Iter.   Inner-Iter.     Column Row Layer    Maximum-Head-Change  Column Row Layer    Maximum-Flux-Residual          L2-NORM 
          0                11           2             4    6     1      -0.7092409260E-02       4    6    1        -0.3972634981E+00      0.3972952815E+00
          0                12           2             4    6     1      -0.4220030260E-02       4    6    1        -0.2363732301E+00      0.2363910939E+00
          0                13           2             4    6     1      -0.2510923890E-02       4    6    1        -0.1406413204E+00      0.1406517046E+00
          0                14           2             4    6     1      -0.1493992345E-02       4    6    1        -0.8368044132E-01      0.8368656187E-01
          0                15           2             4    6     1      -0.8889150978E-03       4    6    1        -0.4978882797E-01      0.4979245585E-01
          0                16           2             4    6     1      -0.5288948955E-03       4    6    1        -0.2962354060E-01      0.2962569584E-01
          0                17           2             4    6     1      -0.3146847429E-03       4    6    1        -0.1762540977E-01      0.1762669131E-01
          0                18           2             4    6     1      -0.1872316356E-03       4    6    1        -0.1048669668E-01      0.1048745903E-01
          0                19           2             4    6     1      -0.1113986711E-03       4    6    1        -0.6239293645E-02      0.6239747175E-02
          0                20           1             4    6     1      -0.6627931756E-04       4    6    1        -0.3712183043E-02      0.3712452854E-02

    ------------------------------------------------
       NWT REQUIRED           20 OUTER ITERATIONS 
       AND A TOTAL OF         39 INNER ITERATIONS.
    ------------------------------------------------

 NO OUTPUT CONTROL FOR STRESS PERIOD    9   TIME STEP    1
 
 SOLVING FOR HEAD 
                                                   Max.-Head-Change                         Max.-Flux-Residual
  Residual-Control   Outer-Iter.   Inner-Iter.     Column Row Layer    Maximum-Head-Change  Column Row Layer    Maximum-Flux-Residual          L2-NORM 
          0                 1           2             4    8     1       0.1214810075E+01       4    8    1         0.6514071051E+02      0.1117623554E+03
          0                 2           2             4    6     1      -0.1686109608E+01       4    6    1        -0.9204412093E+02      0.2064357325E+03
          0                 3           2             5    6     1      -0.8376499349E+00       5    6    1        -0.4664006538E+02      0.8153790651E+02
          0                 4           2             5    7     1      -0.3385713862E+00       5    7    1        -0.1920234616E+02      0.2165473015E+02
          0                 5           2             5    7     1      -0.1989698740E+00       5    7    1        -0.1128390875E+02      0.1169013258E+02
          0                 6           2             5    7     1      -0.1168002579E+00       5    7    1        -0.6621906872E+01      0.6824774342E+01
          0                 7           2             4    8     1      -0.1740607113E-01       4    8    1        -0.9699832037E+00      0.1038819364E+01
          0                 8           2             4    8     1      -0.1041313347E-01       4    8    1        -0.5804667427E+00      0.5813369785E+00
          0                 9           2             4    8     1      -0.6229565748E-02       4    8    1        -0.3472547424E+00      0.3472864236E+00
          0                10           2             4    8     1      -0.3726754504E-02       4    8    1        -0.2077388285E+00      0.2077420533E+00
                                                   Max.-Head-Change                         Max.-Flux-Residual
  Residual-Control   Outer-Iter.   Inner-Iter.     Column Row Layer    Maximum-Head-Change  Column Row Layer    Maximum-Flux-Residual          L2-NORM 
          0                11           2             4    8     1      -0.2229466011E-02       4    8    1        -0.1242750190E+00      0.1242755144E+00
          0                12           2             4    8     1      -0.1333730646E-02       4    8    1        -0.7434419931E-01      0.7434435285E-01
          0                13           2             4    8     1      -0.7978709622E-03       4    8    1        -0.4447413992E-01      0.4447421656E-01
          0                14           2             4    8     1      -0.4773033265E-03       4    8    1        -0.2660512426E-01      0.2660516826E-01
          0                15           2             4    8     1      -0.2855311791E-03       4    8    1        -0.1591550055E-01      0.1591552660E-01
          0                16           2             4    8     1      -0.1708086631E-03       4    8    1        -0.9520781357E-02      0.9520796904E-02
          0                17           1             4    8     1      -0.1021794419E-03       4    8    1        -0.5695372846E-02      0.5695382137E-02
          0                18           1             4    8     1      -0.6112437507E-04       4    8    1        -0.3406975459E-02      0.3406981013E-02

    ------------------------------------------------
       NWT REQUIRED           18 OUTER ITERATIONS 
       AND A TOTAL OF         34 INNER ITERATIONS.
    ------------------------------------------------

 NO OUTPUT CONTROL FOR STRESS PERIOD    9   TIME STEP    2
 
 SOLVING FOR HEAD 
                                                   Max.-Head-Change                         Max.-Flux-Residual
  Residual-Control   Outer-Iter.   Inner-Iter.     Column Row Layer    Maximum-Head-Change  Column Row Layer    Maximum-Flux-Residual          L2-NORM 
          0                 1           2             5    8     1       0.1244014395E+01       5    8    1         0.6794275048E+02      0.1138194983E+03
          0                 2           2             4    6     1       0.3859915439E+00       4    6    1         0.2066782223E+02      0.3270585041E+02
          0                 3           2             4    6     1       0.2221062718E+00       4    6    1         0.1202988778E+02      0.1307588426E+02
          0                 4           2             4    6     1       0.1359568000E+00       4    6    1         0.7382152759E+01      0.7609433220E+01
          0                 5           2             4    6     1       0.7951897070E-01       4    6    1         0.4326674613E+01      0.4349653484E+01
          0                 6           2             4    6     1       0.4645671012E-01       4    6    1         0.2529715680E+01      0.2532659312E+01
          0                 7           2             4    6     1       0.2712939796E-01       4    6    1         0.1477720459E+01      0.1478312308E+01
          0                 8           2             4    6     1       0.1584022450E-01       4    6    1         0.8629041028E+00      0.8631018983E+00
          0                 9           2             4    6     1       0.9248167444E-02       4    6    1         0.5038203027E+00      0.5039117486E+00
          0                10           2             4    6     1       0.5399329094E-02       4    6    1         0.2941487524E+00      0.2941975583E+00
                                                   Max.-Head-Change                         Max.-Flux-Residual
  Residual-Control   Outer-Iter.   Inner-Iter.     Column Row Layer    Maximum-Head-Change  Column Row Layer    Maximum-Flux-Residual          L2-NORM 
          0                11           2             4    6     1       0.3152245181E-02       4    6    1         0.1717315188E+00      0.1717590600E+00
          0                12           2             4    6     1       0.1840342547E-02       4    6    1         0.1002604832E+00      0.1002763563E+00
          0                13           2             4    6     1       0.1074426610E-02       4    6    1         0.5853401639E-01      0.5854323816E-01
          0                14           2             4    6     1       0.6272701391E-03       4    6    1         0.3417325634E-01      0.3417863016E-01
          0                15           2             4    6     1       0.3662118374E-03       4    6    1         0.1995097878E-01      0.1995411392E-01
          0                16           2             4    6     1       0.2138011839E-03       4    6    1         0.1164774807E-01      0.1164957791E-01
          0                17           2             4    6     1       0.1248210459E-03       4    6    1         0.6800168856E-02      0.6801237112E-02
          0                18           1             4    6     1       0.7287281091E-04       4    6    1         0.3970063104E-02      0.3970686838E-02

    ------------------------------------------------
       NWT REQUIRED           18 OUTER ITERATIONS 
       AND A TOTAL OF         35 INNER ITERATIONS.
    ------------------------------------------------

 NO OUTPUT CONTROL FOR STRESS PERIOD    9   TIME STEP    3
 
 SOLVING FOR HEAD 
                                                   Max.-Head-Change                         Max.-Flux-Residual
  Residual-Control   Outer-Iter.   Inner-Iter.     Column Row Layer    Maximum-Head-Change  Column Row Layer    Maximum-Flux-Residual          L2-NORM 
          0                 1           2             4    8     1       0.1759140789E+01       4    8    1         0.9478998787E+02      0.1458178214E+03
          0                 2           2             4    6     1      -0.1684771520E+01       4    6    1        -0.9212018771E+02      0.1937489296E+03
          0                 3           2             5    8     1      -0.8441958811E+00       5    8    1        -0.4715311773E+02      0.7689177055E+02
          0                 4           2             5    6     1      -0.4346579241E+00       5    6    1        -0.2428417524E+02      0.3082909753E+02
          0                 5           2             5    6     1      -0.2589280064E+00       5    6    1        -0.1449326064E+02      0.1804133303E+02
          0                 6           2             5    7     1      -0.1102821903E+00       5    7    1        -0.6266860244E+01      0.6477798473E+01
          0                 7           2             5    7     1      -0.6473697811E-01       5    7    1        -0.3669742753E+01      0.3750953196E+01
          0                 8           2             5    7     1      -0.3800101870E-01       5    7    1        -0.2154469821E+01      0.2203399572E+01
          0                 9           2             5    7     1      -0.2230669379E-01       5    7    1        -0.1264661407E+01      0.1294539382E+01
          0                10           2             5    7     1      -0.1309401990E-01       5    7    1        -0.7423470853E+00      0.7606210370E+00
                                                   Max.-Head-Change                         Max.-Flux-Residual
  Residual-Control   Outer-Iter.   Inner-Iter.     Column Row Layer    Maximum-Head-Change  Column Row Layer    Maximum-Flux-Residual          L2-NORM 
          0                11           2             5    7     1      -0.7686149665E-02       5    7    1        -0.4357503026E+00      0.4469289901E+00
          0                12           2             5    7     1      -0.4511726828E-02       5    7    1        -0.2557799656E+00      0.2626178740E+00
          0                13           2             5    7     1      -0.2648347055E-02       5    7    1        -0.1501390010E+00      0.1543212780E+00
          0                14           2             5    7     1      -0.1554551618E-02       5    7    1        -0.8812896896E-01      0.9068670981E-01
          0                15           2             5    7     1      -0.9125014340E-03       5    7    1        -0.5172994579E-01      0.5329400878E-01
          0                16           2             5    7     1      -0.5356241293E-03       5    7    1        -0.3036431761E-01      0.3132064392E-01
          0                17           2             5    7     1      -0.3144017060E-03       5    7    1        -0.1782309833E-01      0.1840777049E-01
          0                18           2             5    7     1      -0.1845473674E-03       5    7    1        -0.1046167123E-01      0.1081908682E-01
          0                19           2             5    7     1      -0.1083250836E-03       5    7    1        -0.6140689445E-02      0.6359158423E-02
          0                20           1             5    7     1      -0.6358408744E-04       5    7    1        -0.3604387030E-02      0.3737911967E-02

    ------------------------------------------------
       NWT REQUIRED           20 OUTER ITERATIONS 
       AND A TOTAL OF         39 INNER ITERATIONS.
    ------------------------------------------------

 NO OUTPUT CONTROL FOR STRESS PERIOD    9   TIME STEP    4
 
 SOLVING FOR HEAD 
                                                   Max.-Head-Change                         Max.-Flux-Residual
  Residual-Control   Outer-Iter.   Inner-Iter.     Column Row Layer    Maximum-Head-Change  Column Row Layer    Maximum-Flux-Residual          L2-NORM 
          0                 1           2             5    6     1       0.1314849761E+01       5    6    1         0.7134050167E+02      0.1298714596E+03
          0                 2           2             4    6     1       0.3847476628E+00       4    6    1         0.2048260158E+02      0.3611426416E+02
          0                 3           2             4    6     1       0.2220633286E+00       4    6    1         0.1200210798E+02      0.1346008153E+02
          0                 4           2             4    6     1       0.1360774214E+00       4    6    1         0.7383327311E+01      0.7665640540E+01
          0                 5           2             4    6     1       0.7962043242E-01       4    6    1         0.4331049951E+01      0.4359309298E+01
          0                 6           2             4    6     1       0.4652250617E-01       4    6    1         0.2533057845E+01      0.2536576140E+01
          0                 7           2             4    6     1       0.2716914947E-01       4    6    1         0.1479837379E+01      0.1480506392E+01
          0                 8           2             4    6     1       0.1586367597E-01       4    6    1         0.8641733069E+00      0.8643840032E+00
          0                 9           2             4    6     1       0.9261885029E-02       4    6    1         0.5045670415E+00      0.5046610432E+00
          0                10           2             4    6     1       0.5407327844E-02       4    6    1         0.2945851130E+00      0.2946344993E+00
                                                   Max.-Head-Change                         Max.-Flux-Residual
  Residual-Control   Outer-Iter.   Inner-Iter.     Column Row Layer    Maximum-Head-Change  Column Row Layer    Maximum-Flux-Residual          L2-NORM 
          0                11           2             4    6     1       0.3156903822E-02       4    6    1         0.1719858680E+00      0.1720135645E+00
          0                12           2             4    6     1       0.1843054644E-02       4    6    1         0.1004086012E+00      0.1004245263E+00
          0                13           2             4    6     1       0.1076005228E-02       4    6    1         0.5862024104E-01      0.5862948475E-01
          0                14           2             4    6     1       0.6281889348E-03       4    6    1         0.3422344374E-01      0.3422882855E-01
          0                15           2             4    6     1       0.3667465830E-03       4    6    1         0.1998018887E-01      0.1998333000E-01
          0                16           2             4    6     1       0.2141124033E-03       4    6    1         0.1166474847E-01      0.1166658173E-01
          0                17           2             4    6     1       0.1250021722E-03       4    6    1         0.6810063000E-02      0.6811133182E-02
          0                18           1             4    6     1       0.7297822321E-04       4    6    1         0.3975821374E-02      0.3976446127E-02

    ------------------------------------------------
       NWT REQUIRED           18 OUTER ITERATIONS 
       AND A TOTAL OF         35 INNER ITERATIONS.
    ------------------------------------------------

 NO OUTPUT CONTROL FOR STRESS PERIOD    9   TIME STEP    5
 
 SOLVING FOR HEAD 
                                                   Max.-Head-Change                         Max.-Flux-Residual
  Residual-Control   Outer-Iter.   Inner-Iter.     Column Row Layer    Maximum-Head-Change  Column Row Layer    Maximum-Flux-Residual          L2-NORM 
          0                 1           2             4    8     1       0.1757359669E+01       4    8    1         0.9469227844E+02      0.1473220471E+03
          0                 2           2             4    6     1      -0.1682488944E+01       4    6    1        -0.9200194168E+02      0.1935577390E+03
          0                 3           2             5    8     1      -0.8372948235E+00       5    8    1        -0.4677423911E+02      0.7540657905E+02
          0                 4           2             5    6     1      -0.4265008571E+00       5    6    1        -0.2382907512E+02      0.3026219253E+02
          0                 5           2             5    6     1      -0.2540494983E+00       5    6    1        -0.1422121839E+02      0.1762760552E+02
          0                 6           2             5    7     1      -0.1090922991E+00       5    7    1        -0.6107603621E+01      0.8030626656E+01
          0                 7           2             5    7     1      -0.6403691492E-01       5    7    1        -0.3636308909E+01      0.3709549145E+01
          0                 8           2             5    7     1      -0.3758896947E-01       5    7    1        -0.2131010564E+01      0.2164397972E+01
          0                 9           2             5    7     1      -0.2206415233E-01       5    7    1        -0.1250978790E+01      0.1271298233E+01
          0                10           2             5    7     1      -0.1295124741E-01       5    7    1        -0.7342917018E+00      0.7467268593E+00
                                                   Max.-Head-Change                         Max.-Flux-Residual
  Residual-Control   Outer-Iter.   Inner-Iter.     Column Row Layer    Maximum-Head-Change  Column Row Layer    Maximum-Flux-Residual          L2-NORM 
          0                11           2             5    7     1      -0.7602103807E-02       5    7    1        -0.4310085900E+00      0.4386224943E+00
          0                12           2             5    7     1      -0.4462250429E-02       5    7    1        -0.2529887101E+00      0.2576505530E+00
          0                13           2             5    7     1      -0.2619220533E-02       5    7    1        -0.1484958635E+00      0.1513499307E+00
          0                14           2             5    7     1      -0.1537404642E-02       5    7    1        -0.8716167820E-01      0.8890879080E-01
          0                15           2             5    7     1      -0.9024067024E-03       5    7    1        -0.5116050505E-01      0.5222987255E-01
          0                16           2             5    7     1      -0.5296810657E-03       5    7    1        -0.3002908342E-01      0.3068354290E-01
          0                17           2             5    7     1      -0.3109027829E-03       5    7    1        -0.1762573957E-01      0.1802622689E-01
          0                18           2             5    7     1      -0.1824873678E-03       5    7    1        -0.1034548009E-01      0.1059052493E-01
          0                19           2             5    7     1      -0.1071122289E-03       5    7    1        -0.6072282812E-02      0.6222200783E-02
          0                20           1             5    7     1      -0.6286998756E-04       5    7    1        -0.3564112349E-02      0.3655821719E-02

    ------------------------------------------------
       NWT REQUIRED           20 OUTER ITERATIONS 
       AND A TOTAL OF         39 INNER ITERATIONS.
    ------------------------------------------------

 NO OUTPUT CONTROL FOR STRESS PERIOD    9   TIME STEP    6
 
 SOLVING FOR HEAD 
                                                   Max.-Head-Change                         Max.-Flux-Residual
  Residual-Control   Outer-Iter.   Inner-Iter.     Column Row Layer    Maximum-Head-Change  Column Row Layer    Maximum-Flux-Residual          L2-NORM 
          0                 1           2             5    6     1       0.1302586750E+01       5    6    1         0.7068705230E+02      0.1281880870E+03
          0                 2           2             4    6     1       0.3833584610E+00       4    6    1         0.2039353587E+02      0.3642082816E+02
          0                 3           2             4    6     1       0.2213291011E+00       4    6    1         0.1195927822E+02      0.1346614308E+02
          0                 4           2             4    6     1       0.1356665347E+00       4    6    1         0.7360260294E+01      0.7648569537E+01
          0                 5           2             4    6     1       0.7938446621E-01       4    6    1         0.4318050080E+01      0.4346908820E+01
          0                 6           2             4    6     1       0.4638553571E-01       4    6    1         0.2525567289E+01      0.2529154696E+01
          0                 7           2             4    6     1       0.2708931583E-01       4    6    1         0.1475483779E+01      0.1476162697E+01
          0                 8           2             4    6     1       0.1581707222E-01       4    6    1         0.8616345593E+00      0.8618469904E+00
          0                 9           2             4    6     1       0.9234663609E-02       4    6    1         0.5030847464E+00      0.5031790936E+00
          0                10           2             4    6     1       0.5391424194E-02       4    6    1         0.2937192383E+00      0.2937686984E+00
                                                   Max.-Head-Change                         Max.-Flux-Residual
  Residual-Control   Outer-Iter.   Inner-Iter.     Column Row Layer    Maximum-Head-Change  Column Row Layer    Maximum-Flux-Residual          L2-NORM 
          0                11           2             4    6     1       0.3147611617E-02       4    6    1         0.1714799821E+00      0.1715076950E+00
          0                12           2             4    6     1       0.1837625216E-02       4    6    1         0.1001130186E+00      0.1001289475E+00
          0                13           2             4    6     1       0.1072832783E-02       4    6    1         0.5844753171E-01      0.5845677639E-01
          0                14           2             4    6     1       0.6263352498E-03       4    6    1         0.3412252856E-01      0.3412791365E-01
          0                15           2             4    6     1       0.3656634595E-03       4    6    1         0.1992122332E-01      0.1992436455E-01
          0                16           2             4    6     1       0.2134795253E-03       4    6    1         0.1163029440E-01      0.1163212772E-01
          0                17           2             4    6     1       0.1246323764E-03       4    6    1         0.6789931197E-02      0.6791001420E-02
          0                18           1             4    6     1       0.7276214878E-04       4    6    1         0.3964058200E-02      0.3964683041E-02

    ------------------------------------------------
       NWT REQUIRED           18 OUTER ITERATIONS 
       AND A TOTAL OF         35 INNER ITERATIONS.
    ------------------------------------------------

 NO OUTPUT CONTROL FOR STRESS PERIOD    9   TIME STEP    7
 
 SOLVING FOR HEAD 
                                                   Max.-Head-Change                         Max.-Flux-Residual
  Residual-Control   Outer-Iter.   Inner-Iter.     Column Row Layer    Maximum-Head-Change  Column Row Layer    Maximum-Flux-Residual          L2-NORM 
          0                 1           2             4    8     1       0.1758219791E+01       4    8    1         0.9460884455E+02      0.1485788194E+03
          0                 2           2             4    6     1      -0.1680858229E+01       4    6    1        -0.9191906662E+02      0.1934510726E+03
          0                 3           2             5    8     1      -0.8316746792E+00       5    8    1        -0.4646567161E+02      0.7420926662E+02
          0                 4           2             5    6     1      -0.4197847686E+00       5    6    1        -0.2345443371E+02      0.2996962138E+02
          0                 5           2             5    6     1      -0.2500322461E+00       5    6    1        -0.1399709630E+02      0.1729540511E+02
          0                 6           2             5    6     1      -0.1487834906E+00       5    6    1        -0.8334823787E+01      0.1030086118E+02
          0                 7           2             5    7     1      -0.6364226924E-01       5    7    1        -0.3591150148E+01      0.3804720574E+01
          0                 8           2             5    7     1      -0.3735654659E-01       5    7    1        -0.2119287104E+01      0.2144356950E+01
          0                 9           2             5    7     1      -0.2192720799E-01       5    7    1        -0.1243173276E+01      0.1257479469E+01
          0                10           2             5    7     1      -0.1287055114E-01       5    7    1        -0.7297161120E+00      0.7384667550E+00
                                                   Max.-Head-Change                         Max.-Flux-Residual
  Residual-Control   Outer-Iter.   Inner-Iter.     Column Row Layer    Maximum-Head-Change  Column Row Layer    Maximum-Flux-Residual          L2-NORM 
          0                11           2             5    7     1      -0.7554549629E-02       5    7    1        -0.4283121077E+00      0.4336745098E+00
          0                12           2             5    7     1      -0.4434225815E-02       5    7    1        -0.2513997096E+00      0.2546861853E+00
          0                13           2             5    7     1      -0.2602704627E-02       5    7    1        -0.1475594509E+00      0.1495734652E+00
          0                14           2             5    7     1      -0.1527670999E-02       5    7    1        -0.8660982669E-01      0.8784389790E-01
          0                15           2             5    7     1      -0.8966700540E-03       5    7    1        -0.5083527735E-01      0.5159134585E-01
          0                16           2             5    7     1      -0.5263000224E-03       5    7    1        -0.2983740966E-01      0.3030056377E-01
          0                17           2             5    7     1      -0.3089100318E-03       5    7    1        -0.1751277362E-01      0.1779645710E-01
          0                18           2             5    7     1      -0.1813128349E-03       5    7    1        -0.1027890033E-01      0.1045263543E-01
          0                19           1             5    7     1      -0.1064199398E-03       5    7    1        -0.6033041188E-02      0.6139427779E-02
          0                20           1             5    7     1      -0.6246193111E-04       5    7    1        -0.3540982942E-02      0.3606120759E-02

    ------------------------------------------------
       NWT REQUIRED           20 OUTER ITERATIONS 
       AND A TOTAL OF         38 INNER ITERATIONS.
    ------------------------------------------------

 NO OUTPUT CONTROL FOR STRESS PERIOD    9   TIME STEP    8
 
 SOLVING FOR HEAD 
                                                   Max.-Head-Change                         Max.-Flux-Residual
  Residual-Control   Outer-Iter.   Inner-Iter.     Column Row Layer    Maximum-Head-Change  Column Row Layer    Maximum-Flux-Residual          L2-NORM 
          0                 1           2             5    6     1       0.1292375448E+01       5    6    1         0.7014331652E+02      0.1267879142E+03
          0                 2           2             4    6     1       0.3823249175E+00       4    6    1         0.2032595681E+02      0.3671342767E+02
          0                 3           2             4    6     1       0.2207904858E+00       4    6    1         0.1192754683E+02      0.1347919068E+02
          0                 4           2             4    6     1       0.1353656965E+00       4    6    1         0.7343370207E+01      0.7636592341E+01
          0                 5           2             4    6     1       0.7921159857E-01       4    6    1         0.4308532108E+01      0.4337863868E+01
          0                 6           2             4    6     1       0.4628511839E-01       4    6    1         0.2520079180E+01      0.2523718004E+01
          0                 7           2             4    6     1       0.2703074820E-01       4    6    1         0.1472291675E+01      0.1472977232E+01
          0                 8           2             4    6     1       0.1578286222E-01       4    6    1         0.8597719028E+00      0.8599852560E+00
          0                 9           2             4    6     1       0.9214670242E-02       4    6    1         0.5019965572E+00      0.5020909799E+00
          0                10           2             4    6     1       0.5379737127E-02       4    6    1         0.2930832264E+00      0.2931326452E+00
                                                   Max.-Head-Change                         Max.-Flux-Residual
  Residual-Control   Outer-Iter.   Inner-Iter.     Column Row Layer    Maximum-Head-Change  Column Row Layer    Maximum-Flux-Residual          L2-NORM 
          0                11           2             4    6     1       0.3140779480E-02       4    6    1         0.1711081943E+00      0.1711358659E+00
          0                12           2             4    6     1       0.1833631119E-02       4    6    1         0.9989567352E-01      0.9991157459E-01
          0                13           2             4    6     1       0.1070497798E-02       4    6    1         0.5832047042E-01      0.5832969808E-01
          0                14           2             4    6     1       0.6249701940E-03       4    6    1         0.3404824730E-01      0.3405362227E-01
          0                15           2             4    6     1       0.3648654340E-03       4    6    1         0.1987779773E-01      0.1988093300E-01
          0                16           2             4    6     1       0.2130129928E-03       4    6    1         0.1160490737E-01      0.1160673724E-01
          0                17           2             4    6     1       0.1243596376E-03       4    6    1         0.6775089709E-02      0.6776157880E-02
          0                18           1             4    6     1       0.7260270349E-04       4    6    1         0.3955381746E-02      0.3956005355E-02

    ------------------------------------------------
       NWT REQUIRED           18 OUTER ITERATIONS 
       AND A TOTAL OF         35 INNER ITERATIONS.
    ------------------------------------------------

 NO OUTPUT CONTROL FOR STRESS PERIOD    9   TIME STEP    9
 
 SOLVING FOR HEAD 
                                                   Max.-Head-Change                         Max.-Flux-Residual
  Residual-Control   Outer-Iter.   Inner-Iter.     Column Row Layer    Maximum-Head-Change  Column Row Layer    Maximum-Flux-Residual          L2-NORM 
          0                 1           2             4    8     1       0.1749752858E+01       4    8    1         0.9454253786E+02      0.1450956608E+03
          0                 2           2             5    8     1      -0.1729203286E+01       5    8    1        -0.9581205286E+02      0.2019966215E+03
          0                 3           2             5    6     1      -0.6938408586E+00       5    6    1        -0.3857261119E+02      0.5730481233E+02
          0                 4           2             5    6     1      -0.4142399964E+00       5    6    1        -0.2314898223E+02      0.2910640376E+02
          0                 5           2             5    6     1      -0.2466707472E+00       5    6    1        -0.1381177594E+02      0.1692976502E+02
          0                 6           2             5    6     1      -0.1467471548E+00       5    6    1        -0.8222488362E+01      0.1008453466E+02
          0                 7           2             5    6     1      -0.8727512785E-01       5    6    1        -0.4891129624E+01      0.6016989001E+01
          0                 8           2             5    7     1      -0.3685554766E-01       5    7    1        -0.2088405491E+01      0.2107297053E+01
          0                 9           2             5    7     1      -0.2163276074E-01       5    7    1        -0.1226653685E+01      0.1236838453E+01
          0                10           2             5    7     1      -0.1269747785E-01       5    7    1        -0.7199257228E+00      0.7261286083E+00
                                                   Max.-Head-Change                         Max.-Flux-Residual
  Residual-Control   Outer-Iter.   Inner-Iter.     Column Row Layer    Maximum-Head-Change  Column Row Layer    Maximum-Flux-Residual          L2-NORM 
          0                11           2             5    7     1      -0.7452813922E-02       5    7    1        -0.4225618725E+00      0.4263643133E+00
          0                12           2             5    7     1      -0.4374422190E-02       5    7    1        -0.2480193476E+00      0.2503520063E+00
          0                13           2             5    7     1      -0.2567549540E-02       5    7    1        -0.1455724053E+00      0.1470033955E+00
          0                14           2             5    7     1      -0.1507005125E-02       5    7    1        -0.8544177086E-01      0.8631951357E-01
          0                15           2             5    7     1      -0.8845215250E-03       5    7    1        -0.5014864616E-01      0.5068695827E-01
          0                16           2             5    7     1      -0.5191583861E-03       5    7    1        -0.2943377562E-01      0.2976386882E-01
          0                17           2             5    7     1      -0.3047117081E-03       5    7    1        -0.1727549634E-01      0.1747787988E-01
          0                18           2             5    7     1      -0.1788447602E-03       5    7    1        -0.1013941496E-01      0.1026348047E-01
          0                19           1             5    7     1      -0.1049690147E-03       5    7    1        -0.5951042796E-02      0.6027086855E-02
          0                20           1             5    7     1      -0.6160895688E-04       5    7    1        -0.3492778606E-02      0.3539382225E-02

    ------------------------------------------------
       NWT REQUIRED           20 OUTER ITERATIONS 
       AND A TOTAL OF         38 INNER ITERATIONS.
    ------------------------------------------------

 NO OUTPUT CONTROL FOR STRESS PERIOD    9   TIME STEP   10
 
 SOLVING FOR HEAD 
                                                   Max.-Head-Change                         Max.-Flux-Residual
  Residual-Control   Outer-Iter.   Inner-Iter.     Column Row Layer    Maximum-Head-Change  Column Row Layer    Maximum-Flux-Residual          L2-NORM 
          0                 1           2             5    6     1       0.1283601237E+01       5    6    1         0.6968912374E+02      0.1051102635E+03
          0                 2           2             4    6     1       0.3814769495E+00       4    7    1         0.2029702312E+02      0.3374338355E+02
          0                 3           2             4    6     1       0.2203450164E+00       4    6    1         0.1190149495E+02      0.1314359477E+02
          0                 4           2             4    6     1       0.1351149913E+00       4    6    1         0.7329381762E+01      0.7567295551E+01
          0                 5           2             4    6     1       0.7906680708E-01       4    6    1         0.4300591547E+01      0.4324466148E+01
          0                 6           2             4    6     1       0.4620076580E-01       4    6    1         0.2515479261E+01      0.2518636652E+01
          0                 7           2             4    6     1       0.2698147637E-01       4    6    1         0.1469609222E+01      0.1470251787E+01
          0                 8           2             4    6     1       0.1575406185E-01       4    6    1         0.8582045850E+00      0.8584137428E+00
          0                 9           2             4    6     1       0.9197833763E-02       4    6    1         0.5010803641E+00      0.5011742236E+00
          0                10           2             4    6     1       0.5369894766E-02       4    6    1         0.2925476214E+00      0.2925968999E+00
                                                   Max.-Head-Change                         Max.-Flux-Residual
  Residual-Control   Outer-Iter.   Inner-Iter.     Column Row Layer    Maximum-Head-Change  Column Row Layer    Maximum-Flux-Residual          L2-NORM 
          0                11           2             4    6     1       0.3135025948E-02       4    6    1         0.1707950884E+00      0.1708227026E+00
          0                12           2             4    6     1       0.1830267862E-02       4    6    1         0.9971264249E-01      0.9972851477E-01
          0                13           2             4    6     1       0.1068531814E-02       4    6    1         0.5821347898E-01      0.5822269104E-01
          0                14           2             4    6     1       0.6238209921E-03       4    6    1         0.3398570583E-01      0.3399107213E-01
          0                15           2             4    6     1       0.3641936795E-03       4    6    1         0.1984123960E-01      0.1984437011E-01
          0                16           2             4    6     1       0.2126203263E-03       4    6    1         0.1158353768E-01      0.1158536537E-01
          0                17           2             4    6     1       0.1241301093E-03       4    6    1         0.6762598308E-02      0.6763666125E-02
          0                18           1             4    6     1       0.7246853605E-04       4    6    1         0.3948080065E-02      0.3948704967E-02

    ------------------------------------------------
       NWT REQUIRED           18 OUTER ITERATIONS 
       AND A TOTAL OF         35 INNER ITERATIONS.
    ------------------------------------------------

 NO OUTPUT CONTROL FOR STRESS PERIOD    9   TIME STEP   11
 
 SOLVING FOR HEAD 
                                                   Max.-Head-Change                         Max.-Flux-Residual
  Residual-Control   Outer-Iter.   Inner-Iter.     Column Row Layer    Maximum-Head-Change  Column Row Layer    Maximum-Flux-Residual          L2-NORM 
          0                 1           2             5    8     1       0.1149428807E+01       5    8    1         0.6328669524E+02      0.7406520848E+02
          0                 2           2             5    8     1       0.2705373629E+00       5    8    1         0.1526086907E+02      0.2828879192E+02
          0                 3           2             5    8     1       0.7428206451E-01       5    8    1         0.4154628870E+01      0.5565719163E+01
          0                 4           2             5    8     1       0.2080199243E-01       5    8    1         0.1143344838E+01      0.1217331581E+01
          0                 5           2             5    8     1       0.5825499274E-02       5    8    1         0.3214668745E+00      0.3314048791E+00
          0                 6           2             5    8     1       0.1631406930E-02       5    8    1         0.8997298154E-01      0.9197523594E-01
          0                 7           1             5    8     1       0.4568692183E-03       5    8    1         0.2519875226E-01      0.2560421372E-01
          0                 8           1             5    8     1       0.1279445256E-03       5    8    1         0.7056725685E-02      0.7138876425E-02
          0                 9           1             5    8     1       0.3583040009E-04       5    8    1         0.1976213824E-02      0.1992845164E-02

    ------------------------------------------------
       NWT REQUIRED            9 OUTER ITERATIONS 
       AND A TOTAL OF         15 INNER ITERATIONS.
    ------------------------------------------------

 NO OUTPUT CONTROL FOR STRESS PERIOD    9   TIME STEP   12
 
 SOLVING FOR HEAD 
                                                   Max.-Head-Change                         Max.-Flux-Residual
  Residual-Control   Outer-Iter.   Inner-Iter.     Column Row Layer    Maximum-Head-Change  Column Row Layer    Maximum-Flux-Residual          L2-NORM 
          0                 1           2             4    8     1       0.1149292695E+01       4    8    1         0.6218144504E+02      0.8302299794E+02
          0                 2           2             4    8     1       0.4828639813E+00       4    8    1         0.2619278087E+02      0.3937080311E+02
          0                 3           2             5    7     1       0.2886968124E+00       5    7    1         0.1572947521E+02      0.2077021903E+02
          0                 4           2             5    8     1      -0.9100832364E+00       4    7    1        -0.5045029946E+02      0.1179832506E+03
          0                 5           2             5    6     1      -0.4867437939E+00       5    6    1        -0.2719015494E+02      0.3981792590E+02
          0                 6           2             5    6     1      -0.2899477201E+00       5    6    1        -0.1620857987E+02      0.2240734494E+02
          0                 7           2             5    6     1      -0.1686260829E+00       5    6    1        -0.9422469505E+01      0.1316615512E+02
          0                 8           2             5    7     1      -0.9253817858E-01       5    7    1        -0.5257281819E+01      0.5530494696E+01
          0                 9           2             5    7     1      -0.5425009415E-01       5    7    1        -0.3075624276E+01      0.3218619451E+01
          0                10           2             5    7     1      -0.3180385257E-01       5    7    1        -0.1803268764E+01      0.1890419221E+01
                                                   Max.-Head-Change                         Max.-Flux-Residual
  Residual-Control   Outer-Iter.   Inner-Iter.     Column Row Layer    Maximum-Head-Change  Column Row Layer    Maximum-Flux-Residual          L2-NORM 
          0                11           2             5    7     1      -0.1864480939E-01       5    7    1        -0.1057136760E+01      0.1110302012E+01
          0                12           2             5    7     1      -0.1093037182E-01       5    7    1        -0.6197296939E+00      0.6521590769E+00
          0                13           2             5    7     1      -0.6407824036E-02       5    7    1        -0.3633057699E+00      0.3830848247E+00
          0                14           2             5    7     1      -0.3756512285E-02       5    7    1        -0.2129810716E+00      0.2250433237E+00
          0                15           2             5    7     1      -0.2202204376E-02       5    7    1        -0.1248556949E+00      0.1322111115E+00
          0                16           2             5    7     1      -0.1291008191E-02       5    7    1        -0.7319380098E-01      0.7767859092E-01
          0                17           2             5    7     1      -0.7568310698E-03       5    7    1        -0.4290805508E-01      0.4564227099E-01
          0                18           2             5    7     1      -0.4436776001E-03       5    7    1        -0.2515370401E-01      0.2682048775E-01
          0                19           2             5    7     1      -0.2600965971E-03       5    7    1        -0.1474564128E-01      0.1576161227E-01
          0                20           2             5    7     1      -0.1524756449E-03       5    7    1        -0.8644184036E-02      0.9263395220E-02
          0                21           1             5    7     1      -0.8938506390E-04       5    7    1        -0.5067374363E-02      0.5444730580E-02

    ------------------------------------------------
       NWT REQUIRED           21 OUTER ITERATIONS 
       AND A TOTAL OF         41 INNER ITERATIONS.
    ------------------------------------------------

 NO OUTPUT CONTROL FOR STRESS PERIOD    9   TIME STEP   13
 
 SOLVING FOR HEAD 
                                                   Max.-Head-Change                         Max.-Flux-Residual
  Residual-Control   Outer-Iter.   Inner-Iter.     Column Row Layer    Maximum-Head-Change  Column Row Layer    Maximum-Flux-Residual          L2-NORM 
          0                 1           2             5    8     1       0.1426299785E+01       5    8    1         0.7799886239E+02      0.1092445466E+03
          0                 2           2             4    8     1      -0.1771593359E+01       4    8    1        -0.9651253411E+02      0.2170052716E+03
          0                 3           2             4    7     1      -0.5712864724E+00       4    7    1        -0.3138773317E+02      0.5574026951E+02
          0                 4           2             5    8     1      -0.2315295617E+00       5    8    1        -0.1300700783E+02      0.1965042471E+02
          0                 5           2             5    8     1      -0.1357618852E+00       5    8    1        -0.7705574130E+01      0.8144545195E+01
          0                 6           2             5    8     1      -0.7960417429E-01       5    8    1        -0.4512896582E+01      0.4574228332E+01
          0                 7           2             5    8     1      -0.4667494505E-01       5    8    1        -0.2646253093E+01      0.2655721421E+01
          0                 8           2             5    8     1      -0.2736689998E-01       5    8    1        -0.1551566573E+01      0.1553030766E+01
          0                 9           2             5    8     1      -0.1604585808E-01       5    8    1        -0.9097131019E+00      0.9099411707E+00
          0                10           2             5    8     1      -0.9407986468E-02       5    8    1        -0.5333771216E+00      0.5334133629E+00
                                                   Max.-Head-Change                         Max.-Flux-Residual
  Residual-Control   Outer-Iter.   Inner-Iter.     Column Row Layer    Maximum-Head-Change  Column Row Layer    Maximum-Flux-Residual          L2-NORM 
          0                11           1             5    8     1      -0.5516037623E-02       5    8    1        -0.3127237871E+00      0.3127298583E+00
          0                12           1             5    8     1      -0.3234109666E-02       5    8    1        -0.1833514575E+00      0.1833526215E+00
          0                13           1             5    8     1      -0.1896179029E-02       5    8    1        -0.1074991108E+00      0.1074994055E+00
          0                14           1             5    8     1      -0.1111734412E-02       5    8    1        -0.6302639843E-01      0.6302650562E-01
          0                15           1             5    8     1      -0.6518083011E-03       5    8    1        -0.3695194008E-01      0.3695199103E-01
          0                16           1             5    8     1      -0.3821517575E-03       5    8    1        -0.2166452352E-01      0.2166455102E-01
          0                17           1             5    8     1      -0.2240520761E-03       5    8    1        -0.1270159268E-01      0.1270160827E-01
          0                18           1             5    8     1      -0.1313588146E-03       5    8    1        -0.7446708659E-02      0.7446717666E-02
          0                19           1             5    8     1      -0.7701345517E-04       5    8    1        -0.4365838692E-02      0.4365843937E-02

    ------------------------------------------------
       NWT REQUIRED           19 OUTER ITERATIONS 
       AND A TOTAL OF         29 INNER ITERATIONS.
    ------------------------------------------------

 NO OUTPUT CONTROL FOR STRESS PERIOD    9   TIME STEP   14
 
 SOLVING FOR HEAD 
                                                   Max.-Head-Change                         Max.-Flux-Residual
  Residual-Control   Outer-Iter.   Inner-Iter.     Column Row Layer    Maximum-Head-Change  Column Row Layer    Maximum-Flux-Residual          L2-NORM 
          0                 1           2             5    7     1       0.6750023528E+00       5    7    1         0.3638837243E+02      0.6259454177E+02
          0                 2           2             5    7     1       0.3959350920E+00       5    7    1         0.2145127832E+02      0.3426239640E+02
          0                 3           2             5    7     1       0.2262965002E+00       5    7    1         0.1230564135E+02      0.1930988010E+02
          0                 4           2             5    7     1       0.1380033786E+00       5    7    1         0.7501462939E+01      0.1186641411E+02
          0                 5           2             5    7     1       0.8059519336E-01       5    7    1         0.4385381715E+01      0.6945322147E+01
          0                 6           2             5    7     1       0.4704003796E-01       5    7    1         0.2560668729E+01      0.4069524494E+01
          0                 7           2             5    7     1       0.2744916534E-01       5    7    1         0.1494448865E+01      0.2384834208E+01
          0                 8           2             5    7     1       0.1601665254E-01       5    7    1         0.8720310064E+00      0.1397562474E+01
          0                 9           2             4    8     1       0.9381237325E-02       5    7    1         0.5088309805E+00      0.8189959040E+00
          0                10           2             4    8     1       0.5508056902E-02       4    8    1         0.2983033664E+00      0.4799483904E+00
                                                   Max.-Head-Change                         Max.-Flux-Residual
  Residual-Control   Outer-Iter.   Inner-Iter.     Column Row Layer    Maximum-Head-Change  Column Row Layer    Maximum-Flux-Residual          L2-NORM 
          0                11           2             4    8     1       0.3233897720E-02       4    8    1         0.1751435434E+00      0.2812632952E+00
          0                12           2             4    8     1       0.1898662368E-02       4    8    1         0.1028302010E+00      0.1648310166E+00
          0                13           2             4    8     1       0.1114717395E-02       4    8    1         0.6037280081E-01      0.9659902589E-01
          0                14           2             4    8     1       0.6544528586E-03       4    8    1         0.3544522783E-01      0.5661278473E-01
          0                15           2             4    8     1       0.3842280083E-03       4    8    1         0.2080994307E-01      0.3317905544E-01
          0                16           2             4    8     1       0.2255781364E-03       4    8    1         0.1221746580E-01      0.1944558013E-01
          0                17           2             4    8     1       0.1324349121E-03       4    8    1         0.7172800296E-02      0.1139684899E-01
          0                18           1             4    8     1       0.7775089129E-04       4    8    1         0.4211083610E-02      0.6679674529E-02

    ------------------------------------------------
       NWT REQUIRED           18 OUTER ITERATIONS 
       AND A TOTAL OF         35 INNER ITERATIONS.
    ------------------------------------------------

 NO OUTPUT CONTROL FOR STRESS PERIOD    9   TIME STEP   15
 
 SOLVING FOR HEAD 
                                                   Max.-Head-Change                         Max.-Flux-Residual
  Residual-Control   Outer-Iter.   Inner-Iter.     Column Row Layer    Maximum-Head-Change  Column Row Layer    Maximum-Flux-Residual          L2-NORM 
          0                 1           2             5    8     1       0.1645228499E+01       5    8    1         0.9009408702E+02      0.1478968527E+03
          0                 2           2             4    8     1      -0.1761061421E+01       4    8    1        -0.9631756316E+02      0.1966802665E+03
          0                 3           2             4    6     1      -0.8152624997E+00       4    6    1        -0.4490483279E+02      0.6818260650E+02
          0                 4           2             4    7     1      -0.2960807000E+00       4    7    1        -0.1624093709E+02      0.2675265687E+02
          0                 5           2             4    7     1      -0.1764636184E+00       4    7    1        -0.9881196801E+01      0.1231447429E+02
          0                 6           2             4    7     1      -0.1051629171E+00       4    7    1        -0.5875333514E+01      0.7138343960E+01
          0                 7           2             4    7     1      -0.6266874663E-01       4    7    1        -0.3501738248E+01      0.4215593530E+01
          0                 8           2             4    7     1      -0.3734454194E-01       4    7    1        -0.2086717519E+01      0.2497457709E+01
          0                 9           2             4    7     1      -0.2225331932E-01       4    7    1        -0.1243462280E+01      0.1480918631E+01
          0                10           2             4    7     1      -0.1326037799E-01       4    7    1        -0.7409573629E+00      0.8784040611E+00
                                                   Max.-Head-Change                         Max.-Flux-Residual
  Residual-Control   Outer-Iter.   Inner-Iter.     Column Row Layer    Maximum-Head-Change  Column Row Layer    Maximum-Flux-Residual          L2-NORM 
          0                11           2             4    7     1      -0.7901534108E-02       4    7    1        -0.4415168926E+00      0.5210987792E+00
          0                12           2             4    7     1      -0.4708275271E-02       4    7    1        -0.2630848732E+00      0.3091653239E+00
          0                13           1             4    7     1      -0.2805481763E-02       4    7    1        -0.1567614828E+00      0.1834431900E+00
          0                14           1             4    7     1      -0.1671661643E-02       4    7    1        -0.9340670158E-01      0.1088556051E+00
          0                15           1             4    7     1      -0.9960582027E-03       4    7    1        -0.5565600645E-01      0.6460073651E-01
          0                16           1             4    7     1      -0.5934942626E-03       4    7    1        -0.3316205698E-01      0.3834077513E-01
          0                17           1             4    7     1      -0.3536257210E-03       4    7    1        -0.1975906340E-01      0.2275728102E-01
          0                18           1             4    7     1      -0.2107010568E-03       4    7    1        -0.1177298966E-01      0.1350875253E-01
          0                19           1             4    7     1      -0.1255408777E-03       4    7    1        -0.7014596921E-02      0.8019454632E-02
          0                20           1             4    7     1      -0.7479958925E-04       4    7    1        -0.4179403070E-02      0.4761112728E-02

    ------------------------------------------------
       NWT REQUIRED           20 OUTER ITERATIONS 
       AND A TOTAL OF         32 INNER ITERATIONS.
    ------------------------------------------------

 NO OUTPUT CONTROL FOR STRESS PERIOD    9   TIME STEP   16
 
 SOLVING FOR HEAD 
                                                   Max.-Head-Change                         Max.-Flux-Residual
  Residual-Control   Outer-Iter.   Inner-Iter.     Column Row Layer    Maximum-Head-Change  Column Row Layer    Maximum-Flux-Residual          L2-NORM 
          0                 1           2             4    6     1       0.1147381603E+01       4    6    1         0.6169646901E+02      0.9232188501E+02
          0                 2           2             5    7     1       0.3940767662E+00       5    7    1         0.2122766162E+02      0.3975809038E+02
          0                 3           2             5    7     1       0.2261867046E+00       5    7    1         0.1225897986E+02      0.2029143665E+02
          0                 4           2             5    7     1       0.1382785777E+00       5    7    1         0.7502065705E+01      0.1220152878E+02
          0                 5           2             5    7     1       0.8088559563E-01       5    7    1         0.4395566869E+01      0.7084573137E+01
          0                 6           2             5    7     1       0.4726456368E-01       5    7    1         0.2570457881E+01      0.4144479179E+01
          0                 7           2             5    7     1       0.2760591915E-01       5    7    1         0.1501825477E+01      0.2428464426E+01
          0                 8           2             5    7     1       0.1612111779E-01       5    7    1         0.8771267231E+00      0.1423385557E+01
          0                 9           2             4    8     1       0.9461485271E-02       4    8    1         0.5123708056E+00      0.8343090190E+00
          0                10           2             4    8     1       0.5555386172E-02       4    8    1         0.3008574795E+00      0.4890224206E+00
                                                   Max.-Head-Change                         Max.-Flux-Residual
  Residual-Control   Outer-Iter.   Inner-Iter.     Column Row Layer    Maximum-Head-Change  Column Row Layer    Maximum-Flux-Residual          L2-NORM 
          0                11           2             4    8     1       0.3261775207E-02       4    8    1         0.1766494181E+00      0.2866353872E+00
          0                12           2             4    8     1       0.1915072176E-02       4    8    1         0.1037170317E+00      0.1680092116E+00
          0                13           2             4    8     1       0.1124374099E-02       4    8    1         0.6089478375E-01      0.9847829402E-01
          0                14           2             4    8     1       0.6601349036E-03       4    8    1         0.3575238909E-01      0.5772353956E-01
          0                15           2             4    8     1       0.3875712512E-03       4    8    1         0.2099067563E-01      0.3383535182E-01
          0                16           2             4    8     1       0.2275452835E-03       4    8    1         0.1232380626E-01      0.1983324299E-01
          0                17           2             4    8     1       0.1335924088E-03       4    8    1         0.7235370637E-02      0.1162577477E-01
          0                18           1             4    8     1       0.7843200181E-04       4    8    1         0.4247901076E-02      0.6814829436E-02

    ------------------------------------------------
       NWT REQUIRED           18 OUTER ITERATIONS 
       AND A TOTAL OF         35 INNER ITERATIONS.
    ------------------------------------------------

 NO OUTPUT CONTROL FOR STRESS PERIOD    9   TIME STEP   17
 
 SOLVING FOR HEAD 
                                                   Max.-Head-Change                         Max.-Flux-Residual
  Residual-Control   Outer-Iter.   Inner-Iter.     Column Row Layer    Maximum-Head-Change  Column Row Layer    Maximum-Flux-Residual          L2-NORM 
          0                 1           2             5    8     1       0.1656464045E+01       5    8    1         0.9069476421E+02      0.1493133933E+03
          0                 2           2             4    8     1      -0.1755616415E+01       4    8    1        -0.9598877487E+02      0.1966216638E+03
          0                 3           2             4    6     1      -0.7915125722E+00       4    6    1        -0.4358886077E+02      0.6708377514E+02
          0                 4           2             4    6     1      -0.4048078083E+00       4    6    1        -0.2233492045E+02      0.3113517265E+02
          0                 5           2             4    7     1      -0.1696445921E+00       4    7    1        -0.9507621676E+01      0.1184365643E+02
          0                 6           2             4    7     1      -0.1010985076E+00       4    7    1        -0.5647953790E+01      0.6807637396E+01
          0                 7           2             4    7     1      -0.6024622176E-01       4    7    1        -0.3366402584E+01      0.4018648659E+01
          0                 8           2             4    7     1      -0.3590064124E-01       4    7    1        -0.2006052040E+01      0.2380838508E+01
          0                 9           2             4    7     1      -0.2139271713E-01       4    7    1        -0.1195383930E+01      0.1411964046E+01
          0                10           2             4    7     1      -0.1274744270E-01       4    7    1        -0.7123018903E+00      0.8376435248E+00
                                                   Max.-Head-Change                         Max.-Flux-Residual
  Residual-Control   Outer-Iter.   Inner-Iter.     Column Row Layer    Maximum-Head-Change  Column Row Layer    Maximum-Flux-Residual          L2-NORM 
          0                11           2             4    7     1      -0.7595818762E-02       4    7    1        -0.4244379625E+00      0.4970035841E+00
          0                12           2             4    7     1      -0.4526067796E-02       4    7    1        -0.2529057989E+00      0.2949201516E+00
          0                13           1             4    7     1      -0.2696886884E-02       4    7    1        -0.1506948150E+00      0.1750203260E+00
          0                14           1             4    7     1      -0.1606940425E-02       4    7    1        -0.8979105176E-01      0.1038746975E+00
          0                15           1             4    7     1      -0.9574856657E-03       4    7    1        -0.5350115818E-01      0.6165486352E-01
          0                16           1             4    7     1      -0.5705061162E-03       4    7    1        -0.3187783166E-01      0.3659826157E-01
          0                17           1             4    7     1      -0.3399256133E-03       4    7    1        -0.1899371356E-01      0.2172643309E-01
          0                18           1             4    7     1      -0.2025363932E-03       4    7    1        -0.1131687606E-01      0.1289883805E-01
          0                19           1             4    7     1      -0.1206751590E-03       4    7    1        -0.6742777569E-02      0.7658544743E-02
          0                20           1             4    7     1      -0.7189990934E-04       4    7    1        -0.4017415364E-02      0.4547521374E-02

    ------------------------------------------------
       NWT REQUIRED           20 OUTER ITERATIONS 
       AND A TOTAL OF         32 INNER ITERATIONS.
    ------------------------------------------------

 NO OUTPUT CONTROL FOR STRESS PERIOD    9   TIME STEP   18
 
 SOLVING FOR HEAD 
                                                   Max.-Head-Change                         Max.-Flux-Residual
  Residual-Control   Outer-Iter.   Inner-Iter.     Column Row Layer    Maximum-Head-Change  Column Row Layer    Maximum-Flux-Residual          L2-NORM 
          0                 1           2             4    6     1       0.1199058630E+01       4    6    1         0.6453623918E+02      0.9334976519E+02
          0                 2           2             5    7     1       0.3959501779E+00       5    7    1         0.2134290243E+02      0.4020844231E+02
          0                 3           2             5    7     1       0.2272226207E+00       5    7    1         0.1231716642E+02      0.2053071017E+02
          0                 4           2             5    7     1       0.1388901429E+00       5    7    1         0.7534795625E+01      0.1233546818E+02
          0                 5           2             5    7     1       0.8125753601E-01       5    7    1         0.4415052125E+01      0.7163272557E+01
          0                 6           2             5    7     1       0.4749325137E-01       5    7    1         0.2582350491E+01      0.4190738183E+01
          0                 7           2             5    7     1       0.2774684519E-01       5    7    1         0.1509146459E+01      0.2455662677E+01
          0                 8           2             4    8     1       0.1624809829E-01       5    7    1         0.8816389639E+00      0.1439378304E+01
          0                 9           2             4    8     1       0.9540795868E-02       4    8    1         0.5166665659E+00      0.8437122936E+00
          0                10           2             4    8     1       0.5601959504E-02       4    8    1         0.3033793239E+00      0.4945504996E+00
                                                   Max.-Head-Change                         Max.-Flux-Residual
  Residual-Control   Outer-Iter.   Inner-Iter.     Column Row Layer    Maximum-Head-Change  Column Row Layer    Maximum-Flux-Residual          L2-NORM 
          0                11           2             4    8     1       0.3289129889E-02       4    8    1         0.1781303886E+00      0.2898847125E+00
          0                12           2             4    8     1       0.1931140631E-02       4    8    1         0.1045868973E+00      0.1699187646E+00
          0                13           2             4    8     1       0.1133813518E-02       4    8    1         0.6140576031E-01      0.9960028941E-01
          0                14           2             4    8     1       0.6656803383E-03       4    8    1         0.3605256510E-01      0.5838267537E-01
          0                15           2             4    8     1       0.3908291701E-03       4    8    1         0.2116702298E-01      0.3422250954E-01
          0                16           2             4    8     1       0.2294593488E-03       4    8    1         0.1242741004E-01      0.2006061395E-01
          0                17           2             4    8     1       0.1347169717E-03       4    8    1         0.7296239316E-02      0.1175928697E-01
          0                18           1             4    8     1       0.7909272453E-04       4    8    1         0.4283663111E-02      0.6893217617E-02

    ------------------------------------------------
       NWT REQUIRED           18 OUTER ITERATIONS 
       AND A TOTAL OF         35 INNER ITERATIONS.
    ------------------------------------------------

 NO OUTPUT CONTROL FOR STRESS PERIOD    9   TIME STEP   19
 
 SOLVING FOR HEAD 
                                                   Max.-Head-Change                         Max.-Flux-Residual
  Residual-Control   Outer-Iter.   Inner-Iter.     Column Row Layer    Maximum-Head-Change  Column Row Layer    Maximum-Flux-Residual          L2-NORM 
          0                 1           2             4    7     1       0.1618342387E+01       4    7    1         0.8665516739E+02      0.1196698144E+03
          0                 2           2             4    8     1      -0.1767164206E+01       5    8    1        -0.9724402915E+02      0.2078712085E+03
          0                 3           2             4    6     1      -0.7801576400E+00       4    6    1        -0.4296522438E+02      0.6263849335E+02
          0                 4           2             4    6     1      -0.4705419313E+00       4    6    1        -0.2602592391E+02      0.3159095664E+02
          0                 5           2             4    7     1      -0.1632862561E+00       4    7    1        -0.9150625834E+01      0.9633764582E+01
          0                 6           2             4    7     1      -0.9728075787E-01       4    7    1        -0.5436171046E+01      0.5493505384E+01
          0                 7           2             4    7     1      -0.5795428819E-01       4    7    1        -0.3239177384E+01      0.3247896582E+01
          0                 8           2             4    7     1      -0.3452494750E-01       4    7    1        -0.1929676534E+01      0.1931015976E+01
          0                 9           2             4    7     1      -0.2056712139E-01       4    7    1        -0.1149542224E+01      0.1149752208E+01
          0                10           2             4    7     1      -0.1225206046E-01       4    7    1        -0.6847916588E+00      0.6848263639E+00
                                                   Max.-Head-Change                         Max.-Flux-Residual
  Residual-Control   Outer-Iter.   Inner-Iter.     Column Row Layer    Maximum-Head-Change  Column Row Layer    Maximum-Flux-Residual          L2-NORM 
          0                11           2             4    7     1      -0.7298623158E-02       4    7    1        -0.4079314560E+00      0.4079380010E+00
          0                12           1             4    7     1      -0.4347799092E-02       4    7    1        -0.2430032893E+00      0.2430049097E+00
          0                13           1             4    7     1      -0.2589971445E-02       4    7    1        -0.1447550903E+00      0.1447556679E+00
          0                14           1             4    7     1      -0.1542828307E-02       4    7    1        -0.8622883695E-01      0.8622910939E-01
          0                15           1             4    7     1      -0.9190463207E-03       4    7    1        -0.5136512288E-01      0.5136527042E-01
          0                16           1             4    7     1      -0.5474625504E-03       4    7    1        -0.3059717407E-01      0.3059725855E-01
          0                17           1             4    7     1      -0.3261134121E-03       4    7    1        -0.1822600636E-01      0.1822605581E-01
          0                18           1             4    7     1      -0.1942585501E-03       4    7    1        -0.1085672777E-01      0.1085675699E-01
          0                19           1             4    7     1      -0.1157147884E-03       4    7    1        -0.6467011245E-02      0.6467028582E-02
          0                20           1             4    7     1      -0.6892786589E-04       4    7    1        -0.3852170721E-02      0.3852181029E-02

    ------------------------------------------------
       NWT REQUIRED           20 OUTER ITERATIONS 
       AND A TOTAL OF         31 INNER ITERATIONS.
    ------------------------------------------------

 NO OUTPUT CONTROL FOR STRESS PERIOD    9   TIME STEP   20
 
 SOLVING FOR HEAD 
                                                   Max.-Head-Change                         Max.-Flux-Residual
  Residual-Control   Outer-Iter.   Inner-Iter.     Column Row Layer    Maximum-Head-Change  Column Row Layer    Maximum-Flux-Residual          L2-NORM 
          0                 1           2             4    6     1       0.1186287708E+01       4    6    1         0.6415107402E+02      0.7258532628E+02
          0                 2           2             4    6     1       0.3411374382E+00       4    6    1         0.1842364604E+02      0.2056592274E+02
          0                 3           2             4    6     1       0.9296881230E-01       4    6    1         0.5025916845E+01      0.5550779549E+01
          0                 4           2             4    6     1       0.3264248918E-01       4    6    1         0.1757236544E+01      0.2152632740E+01
          0                 5           2             4    6     1       0.9450109299E-02       4    6    1         0.5085706457E+00      0.6069957234E+00
          0                 6           2             4    6     1       0.2736972292E-02       4    6    1         0.1472489171E+00      0.1767219061E+00
          0                 7           2             4    6     1       0.7930056759E-03       4    6    1         0.4265124547E-01      0.5151815283E-01
          0                 8           2             4    6     1       0.2298514758E-03       4    6    1         0.1235894268E-01      0.1502155311E-01
          0                 9           1             4    6     1       0.6664636327E-04       4    6    1         0.3582566242E-02      0.4380708150E-02

    ------------------------------------------------
       NWT REQUIRED            9 OUTER ITERATIONS 
       AND A TOTAL OF         17 INNER ITERATIONS.
    ------------------------------------------------

 NO OUTPUT CONTROL FOR STRESS PERIOD    9   TIME STEP   21
 
 SOLVING FOR HEAD 
                                                   Max.-Head-Change                         Max.-Flux-Residual
  Residual-Control   Outer-Iter.   Inner-Iter.     Column Row Layer    Maximum-Head-Change  Column Row Layer    Maximum-Flux-Residual          L2-NORM 
          0                 1           2             5    8     1       0.1736238013E+01       5    8    1         0.9558326884E+02      0.9757088404E+02
          0                 2           2             4    8     1      -0.1841175903E+01       4    8    1        -0.1007088314E+03      0.2245191226E+03
          0                 3           2             5    8     1      -0.4729238048E+00       5    8    1        -0.2696054811E+02      0.2823485000E+02
          0                 4           2             5    8     1      -0.2772958984E+00       5    8    1        -0.1571707789E+02      0.1572111153E+02
          0                 5           2             5    8     1      -0.1625915845E+00       5    8    1        -0.9218501395E+01      0.9218517184E+01
          0                 6           2             5    8     1      -0.9533568430E-01       5    8    1        -0.5405062067E+01      0.5405074882E+01
          0                 7           2             5    8     1      -0.5590018969E-01       5    8    1        -0.3169192719E+01      0.3169200193E+01
          0                 8           2             5    8     1      -0.3277706846E-01       5    8    1        -0.1858223814E+01      0.1858228206E+01
          0                 9           2             5    8     1      -0.1921875203E-01       5    8    1        -0.1089549689E+01      0.1089552267E+01
          0                10           2             5    8     1      -0.1126880976E-01       5    8    1        -0.6388437869E+00      0.6388452993E+00
                                                   Max.-Head-Change                         Max.-Flux-Residual
  Residual-Control   Outer-Iter.   Inner-Iter.     Column Row Layer    Maximum-Head-Change  Column Row Layer    Maximum-Flux-Residual          L2-NORM 
          0                11           2             5    8     1      -0.6607367004E-02       5    8    1        -0.3745763142E+00      0.3745772012E+00
          0                12           1             5    8     1      -0.3874147699E-02       5    8    1        -0.2196259195E+00      0.2196264396E+00
          0                13           1             5    8     1      -0.2271544168E-02       5    8    1        -0.1287728501E+00      0.1287731551E+00
          0                14           1             5    8     1      -0.1331874829E-02       5    8    1        -0.7550267426E-01      0.7550285305E-01
          0                15           1             5    8     1      -0.7809132979E-03       5    8    1        -0.4426878471E-01      0.4426888953E-01
          0                16           1             5    8     1      -0.4578670477E-03       5    8    1        -0.2595553957E-01      0.2595560103E-01
          0                17           1             5    8     1      -0.2684559976E-03       5    8    1        -0.1521807413E-01      0.1521811015E-01
          0                18           1             5    8     1      -0.1573997287E-03       5    8    1        -0.8922498550E-02      0.8922519669E-02
          0                19           1             5    8     1      -0.9228518525E-04       5    8    1        -0.5231309624E-02      0.5231322005E-02

    ------------------------------------------------
       NWT REQUIRED           19 OUTER ITERATIONS 
       AND A TOTAL OF         30 INNER ITERATIONS.
    ------------------------------------------------

 NO OUTPUT CONTROL FOR STRESS PERIOD    9   TIME STEP   22
 
 SOLVING FOR HEAD 
                                                   Max.-Head-Change                         Max.-Flux-Residual
  Residual-Control   Outer-Iter.   Inner-Iter.     Column Row Layer    Maximum-Head-Change  Column Row Layer    Maximum-Flux-Residual          L2-NORM 
          0                 1           2             5    8     1       0.7328670404E+00       5    8    1         0.3938549772E+02      0.7385546852E+02
          0                 2           2             5    7     1       0.4243498119E+00       5    7    1         0.2296761312E+02      0.3797002365E+02
          0                 3           2             5    7     1       0.2431686857E+00       5    7    1         0.1321129813E+02      0.2107959710E+02
          0                 4           2             5    7     1       0.1479708393E+00       5    7    1         0.8038609850E+01      0.1285028206E+02
          0                 5           2             5    7     1       0.8641658890E-01       5    7    1         0.4702067901E+01      0.7513467737E+01
          0                 6           2             5    7     1       0.5044106116E-01       5    7    1         0.2745515168E+01      0.4400146435E+01
          0                 7           2             5    7     1       0.2943642431E-01       5    7    1         0.1602451676E+01      0.2577739389E+01
          0                 8           2             5    7     1       0.1717788082E-01       5    7    1         0.9351393962E+00      0.1510163774E+01
          0                 9           2             5    7     1       0.1002468314E-01       5    7    1         0.5457077319E+00      0.8847270928E+00
          0                10           2             5    7     1       0.5850639345E-02       5    7    1         0.3184669456E+00      0.5183180463E+00
                                                   Max.-Head-Change                         Max.-Flux-Residual
  Residual-Control   Outer-Iter.   Inner-Iter.     Column Row Layer    Maximum-Head-Change  Column Row Layer    Maximum-Flux-Residual          L2-NORM 
          0                11           2             4    8     1       0.3432194836E-02       4    8    1         0.1859386462E+00      0.3036599913E+00
          0                12           2             4    8     1       0.2014309874E-02       4    8    1         0.1091260104E+00      0.1779034976E+00
          0                13           2             4    8     1       0.1182162395E-02       4    8    1         0.6404452328E-01      0.1042287744E+00
          0                14           2             4    8     1       0.6937858260E-03       4    8    1         0.3758654842E-01      0.6106566624E-01
          0                15           2             4    8     1       0.4071660779E-03       4    8    1         0.2205872596E-01      0.3577772727E-01
          0                16           2             4    8     1       0.2389548654E-03       4    8    1         0.1294572390E-01      0.2096207799E-01
          0                17           2             4    8     1       0.1402356479E-03       4    8    1         0.7597494699E-02      0.1228178709E-01
          0                18           1             4    8     1       0.8229985755E-04       4    8    1         0.4458746131E-02      0.7196049677E-02

    ------------------------------------------------
       NWT REQUIRED           18 OUTER ITERATIONS 
       AND A TOTAL OF         35 INNER ITERATIONS.
    ------------------------------------------------

 NO OUTPUT CONTROL FOR STRESS PERIOD    9   TIME STEP   23
 
 SOLVING FOR HEAD 
                                                   Max.-Head-Change                         Max.-Flux-Residual
  Residual-Control   Outer-Iter.   Inner-Iter.     Column Row Layer    Maximum-Head-Change  Column Row Layer    Maximum-Flux-Residual          L2-NORM 
          0                 1           2             4    7     1       0.1637350590E+01       4    7    1         0.8695574527E+02      0.1639582492E+03
          0                 2           2             4    8     1      -0.1618669389E+01       4    8    1        -0.8868121132E+02      0.1785888761E+03
          0                 3           2             4    6     1      -0.7559755142E+00       4    6    1        -0.4153751720E+02      0.7407475969E+02
          0                 4           2             4    6     1      -0.4572220923E+00       4    6    1        -0.2522569583E+02      0.3866774076E+02
          0                 5           2             4    7     1      -0.2131100125E+00       4    7    1        -0.1179834379E+02      0.1677351091E+02
          0                 6           2             4    7     1      -0.1273380605E+00       4    7    1        -0.7104457108E+01      0.9361582468E+01
          0                 7           2             4    7     1      -0.7601506465E-01       4    7    1        -0.4241115660E+01      0.5518981323E+01
          0                 8           2             4    7     1      -0.4535522840E-01       4    7    1        -0.2531585684E+01      0.3267915033E+01
          0                 9           2             4    7     1      -0.2705466881E-01       4    7    1        -0.1510403816E+01      0.1936574911E+01
          0                10           2             4    7     1      -0.1613600447E-01       4    7    1        -0.9009292453E+00      0.1147909208E+01
                                                   Max.-Head-Change                         Max.-Flux-Residual
  Residual-Control   Outer-Iter.   Inner-Iter.     Column Row Layer    Maximum-Head-Change  Column Row Layer    Maximum-Flux-Residual          L2-NORM 
          0                11           2             4    7     1      -0.9623105054E-02       4    7    1        -0.5373189259E+00      0.6805085050E+00
          0                12           2             4    7     1      -0.5738699685E-02       4    7    1        -0.3204361891E+00      0.4034616258E+00
          0                13           2             4    7     1      -0.3422140388E-02       4    7    1        -0.1910870814E+00      0.2392286624E+00
          0                14           2             4    7     1      -0.2040665473E-02       4    7    1        -0.1139482916E+00      0.1418624260E+00
          0                15           1             4    7     1      -0.1216850896E-02       4    7    1        -0.6794763203E-01      0.8413278694E-01
          0                16           1             4    7     1      -0.7255969808E-03       4    7    1        -0.4051656041E-01      0.4990073740E-01
          0                17           1             4    7     1      -0.4326599123E-03       4    7    1        -0.2415925059E-01      0.2960003390E-01
          0                18           1             4    7     1      -0.2579830930E-03       4    7    1        -0.1440547188E-01      0.1755984138E-01
          0                19           1             4    7     1      -0.1538258823E-03       4    7    1        -0.8589441873E-02      0.1041817331E-01
          0                20           1             4    7     1      -0.9171941783E-04       4    7    1        -0.5121486122E-02      0.6181652550E-02

    ------------------------------------------------
       NWT REQUIRED           20 OUTER ITERATIONS 
       AND A TOTAL OF         34 INNER ITERATIONS.
    ------------------------------------------------

 NO OUTPUT CONTROL FOR STRESS PERIOD    9   TIME STEP   24
 
 SOLVING FOR HEAD 
                                                   Max.-Head-Change                         Max.-Flux-Residual
  Residual-Control   Outer-Iter.   Inner-Iter.     Column Row Layer    Maximum-Head-Change  Column Row Layer    Maximum-Flux-Residual          L2-NORM 
          0                 1           2             4    6     1       0.1678322139E+01       4    6    1         0.9051024066E+02      0.1217904655E+03
          0                 2           2             4    6     1       0.4863457353E+00       4    6    1         0.2610104918E+02      0.4418344360E+02
          0                 3           2             4    8     1       0.2446708248E+00       4    8    1         0.1316414544E+02      0.1979600448E+02
          0                 4           2             4    8     1       0.1501529821E+00       4    8    1         0.8099424668E+01      0.1141737297E+02
          0                 5           2             4    8     1       0.8838435881E-01       4    8    1         0.4777723544E+01      0.6535122540E+01
          0                 6           2             4    8     1       0.5195300441E-01       4    8    1         0.2811299554E+01      0.3811263122E+01
          0                 7           2             4    8     1       0.3051751064E-01       4    8    1         0.1652215822E+01      0.2232424720E+01
          0                 8           2             4    8     1       0.1792014023E-01       4    8    1         0.9704389507E+00      0.1308818216E+01
          0                 9           2             4    8     1       0.1052110030E-01       4    8    1         0.5698260862E+00      0.7674472963E+00
          0                10           2             4    8     1       0.6176527661E-02       4    8    1         0.3345438577E+00      0.4500112086E+00
                                                   Max.-Head-Change                         Max.-Flux-Residual
  Residual-Control   Outer-Iter.   Inner-Iter.     Column Row Layer    Maximum-Head-Change  Column Row Layer    Maximum-Flux-Residual          L2-NORM 
          0                11           2             4    8     1       0.3625840950E-02       4    8    1         0.1963955956E+00      0.2638745947E+00
          0                12           2             4    8     1       0.2128447351E-02       4    8    1         0.1152905589E+00      0.1547297820E+00
          0                13           2             4    8     1       0.1249427775E-02       4    8    1         0.6767786046E-01      0.9073080526E-01
          0                14           2             4    8     1       0.7334248231E-03       4    8    1         0.3972776240E-01      0.5320364863E-01
          0                15           2             4    8     1       0.4305239585E-03       4    8    1         0.2332051055E-01      0.3119854508E-01
          0                16           2             4    8     1       0.2527183992E-03       4    8    1         0.1368924212E-01      0.1829504869E-01
          0                17           2             4    8     1       0.1483455458E-03       4    8    1         0.8035606130E-02      0.1072849772E-01
          0                18           1             4    8     1       0.8707841173E-04       4    8    1         0.4716892995E-02      0.6291440404E-02

    ------------------------------------------------
       NWT REQUIRED           18 OUTER ITERATIONS 
       AND A TOTAL OF         35 INNER ITERATIONS.
    ------------------------------------------------

 NO OUTPUT CONTROL FOR STRESS PERIOD    9   TIME STEP   25
 
 SOLVING FOR HEAD 
                                                   Max.-Head-Change                         Max.-Flux-Residual
  Residual-Control   Outer-Iter.   Inner-Iter.     Column Row Layer    Maximum-Head-Change  Column Row Layer    Maximum-Flux-Residual          L2-NORM 
          0                 1           2             5    8     1       0.1495502053E+01       5    8    1         0.8117417848E+02      0.1521418448E+03
          0                 2           2             4    8     1      -0.1633585473E+01       4    8    1        -0.8937036836E+02      0.1856967027E+03
          0                 3           2             4    6     1      -0.8348248234E+00       4    6    1        -0.4590470036E+02      0.7799563201E+02
          0                 4           2             4    7     1      -0.3849390367E+00       4    7    1        -0.2120153483E+02      0.3080380366E+02
          0                 5           2             4    7     1      -0.2303528501E+00       4    7    1        -0.1284077133E+02      0.1658869662E+02
          0                 6           2             4    7     1      -0.1376086391E+00       4    7    1        -0.7673277531E+01      0.9683811154E+01
          0                 7           2             4    7     1      -0.8213247425E-01       4    7    1        -0.4583266798E+01      0.5723457989E+01
          0                 8           2             4    7     1      -0.4899876770E-01       4    7    1        -0.2735273973E+01      0.3391975388E+01
          0                 9           2             4    7     1      -0.2922473501E-01       4    7    1        -0.1631719822E+01      0.2011677165E+01
          0                10           2             4    7     1      -0.1742847133E-01       4    7    1        -0.9731829452E+00      0.1193322758E+01
                                                   Max.-Head-Change                         Max.-Flux-Residual
  Residual-Control   Outer-Iter.   Inner-Iter.     Column Row Layer    Maximum-Head-Change  Column Row Layer    Maximum-Flux-Residual          L2-NORM 
          0                11           2             4    7     1      -0.1039288049E-01       4    7    1        -0.5803517177E+00      0.7079516086E+00
          0                12           2             4    7     1      -0.6197165870E-02       4    7    1        -0.3460655235E+00      0.4200366408E+00
          0                13           2             4    7     1      -0.3695194864E-02       4    7    1        -0.2063512740E+00      0.2492348466E+00
          0                14           2             4    7     1      -0.2203291486E-02       4    7    1        -0.1230392382E+00      0.1479003540E+00
          0                15           1             4    7     1      -0.1313707539E-02       4    7    1        -0.7336194193E-01      0.8777462291E-01
          0                16           1             4    7     1      -0.7832825846E-03       4    7    1        -0.4374116003E-01      0.5209643743E-01
          0                17           1             4    7     1      -0.4670160298E-03       4    7    1        -0.2607971881E-01      0.3092331610E-01
          0                18           1             4    7     1      -0.2784446779E-03       4    7    1        -0.1554923753E-01      0.1835704122E-01
          0                19           1             4    7     1      -0.1660122143E-03       4    7    1        -0.9270627587E-02      0.1089826218E-01
          0                20           1             4    7     1      -0.9897722211E-04       4    7    1        -0.5527174482E-02      0.6470663031E-02

    ------------------------------------------------
       NWT REQUIRED           20 OUTER ITERATIONS 
       AND A TOTAL OF         34 INNER ITERATIONS.
    ------------------------------------------------

 NO OUTPUT CONTROL FOR STRESS PERIOD    9   TIME STEP   26
 
 SOLVING FOR HEAD 
                                                   Max.-Head-Change                         Max.-Flux-Residual
  Residual-Control   Outer-Iter.   Inner-Iter.     Column Row Layer    Maximum-Head-Change  Column Row Layer    Maximum-Flux-Residual          L2-NORM 
          0                 1           2             4    6     1       0.1188660887E+01       4    6    1         0.6382247424E+02      0.1021282115E+03
          0                 2           2             4    8     1       0.4169061885E+00       4    8    1         0.2226215348E+02      0.4008884776E+02
          0                 3           2             4    8     1       0.2416356214E+00       4    8    1         0.1300515957E+02      0.1924188764E+02
          0                 4           2             4    8     1       0.1483323380E+00       4    8    1         0.8002373492E+01      0.1141003718E+02
          0                 5           2             4    8     1       0.8730503697E-01       4    8    1         0.4719677096E+01      0.6586290693E+01
          0                 6           2             4    8     1       0.5131698445E-01       4    8    1         0.2776939266E+01      0.3848938818E+01
          0                 7           2             4    8     1       0.3014387314E-01       4    8    1         0.1631983489E+01      0.2255456297E+01
          0                 8           2             4    8     1       0.1770099118E-01       4    8    1         0.9585578914E+00      0.1322388652E+01
          0                 9           2             4    8     1       0.1039266830E-01       4    8    1         0.5628589161E+00      0.7753806519E+00
          0                10           2             4    8     1       0.6101291881E-02       4    8    1         0.3304611824E+00      0.4546421848E+00
                                                   Max.-Head-Change                         Max.-Flux-Residual
  Residual-Control   Outer-Iter.   Inner-Iter.     Column Row Layer    Maximum-Head-Change  Column Row Layer    Maximum-Flux-Residual          L2-NORM 
          0                11           2             4    8     1       0.3581777096E-02       4    8    1         0.1940040818E+00      0.2665774115E+00
          0                12           2             4    8     1       0.2102642974E-02       4    8    1         0.1138899427E+00      0.1563073346E+00
          0                13           2             4    8     1       0.1234317208E-02       4    8    1         0.6685765229E-01      0.9165162489E-01
          0                14           2             4    8     1       0.7245765866E-03       4    8    1         0.3924746689E-01      0.5374114752E-01
          0                15           2             4    8     1       0.4253427925E-03       4    8    1         0.2303926668E-01      0.3151229563E-01
          0                16           2             4    8     1       0.2496845351E-03       4    8    1         0.1352455745E-01      0.1847819189E-01
          0                17           2             4    8     1       0.1465690488E-03       4    8    1         0.7939174017E-02      0.1083540166E-01
          0                18           1             4    8     1       0.8603816739E-04       4    8    1         0.4660426621E-02      0.6353841442E-02

    ------------------------------------------------
       NWT REQUIRED           18 OUTER ITERATIONS 
       AND A TOTAL OF         35 INNER ITERATIONS.
    ------------------------------------------------

 NO OUTPUT CONTROL FOR STRESS PERIOD    9   TIME STEP   27
 
 SOLVING FOR HEAD 
                                                   Max.-Head-Change                         Max.-Flux-Residual
  Residual-Control   Outer-Iter.   Inner-Iter.     Column Row Layer    Maximum-Head-Change  Column Row Layer    Maximum-Flux-Residual          L2-NORM 
          0                 1           2             5    8     1       0.1508597532E+01       5    8    1         0.8195560571E+02      0.1511079747E+03
          0                 2           2             4    8     1      -0.1645256979E+01       4    8    1        -0.8999773167E+02      0.1868349615E+03
          0                 3           2             4    6     1      -0.8252609472E+00       4    6    1        -0.4538293843E+02      0.7711577033E+02
          0                 4           2             4    7     1      -0.3713012487E+00       4    7    1        -0.2042879936E+02      0.3080958249E+02
          0                 5           2             4    7     1      -0.2222262536E+00       4    7    1        -0.1238732654E+02      0.1609978370E+02
          0                 6           2             4    7     1      -0.1327642399E+00       4    7    1        -0.7402675739E+01      0.9381115805E+01
          0                 7           2             4    7     1      -0.7924400535E-01       4    7    1        -0.4422074241E+01      0.5542306630E+01
          0                 8           2             4    7     1      -0.4727633147E-01       4    7    1        -0.2639155183E+01      0.3284076389E+01
          0                 9           2             4    7     1      -0.2819756892E-01       4    7    1        -0.1574403301E+01      0.1947503708E+01
          0                10           2             4    7     1      -0.1681591354E-01       4    7    1        -0.9390026938E+00      0.1155165898E+01
                                                   Max.-Head-Change                         Max.-Flux-Residual
  Residual-Control   Outer-Iter.   Inner-Iter.     Column Row Layer    Maximum-Head-Change  Column Row Layer    Maximum-Flux-Residual          L2-NORM 
          0                11           2             4    7     1      -0.1002757557E-01       4    7    1        -0.5599682545E+00      0.6852643358E+00
          0                12           2             4    7     1      -0.5979313392E-02       4    7    1        -0.3339097610E+00      0.4065465687E+00
          0                13           2             4    7     1      -0.3565277793E-02       4    7    1        -0.1991021646E+00      0.2412129947E+00
          0                14           2             4    7     1      -0.2125815742E-02       4    7    1        -0.1187162540E+00      0.1431298532E+00
          0                15           1             4    7     1      -0.1267505552E-02       4    7    1        -0.7078396901E-01      0.8493747754E-01
          0                16           1             4    7     1      -0.7557307395E-03       4    7    1        -0.4220382561E-01      0.5040900410E-01
          0                17           1             4    7     1      -0.4505860970E-03       4    7    1        -0.2516296348E-01      0.2991962927E-01
          0                18           1             4    7     1      -0.2686471639E-03       4    7    1        -0.1500255707E-01      0.1776000806E-01
          0                19           1             4    7     1      -0.1601698178E-03       4    7    1        -0.8944634323E-02      0.1054310179E-01
          0                20           1             4    7     1      -0.9549335794E-04       4    7    1        -0.5332782343E-02      0.6259379834E-02

    ------------------------------------------------
       NWT REQUIRED           20 OUTER ITERATIONS 
       AND A TOTAL OF         34 INNER ITERATIONS.
    ------------------------------------------------

 NO OUTPUT CONTROL FOR STRESS PERIOD    9   TIME STEP   28
 
 SOLVING FOR HEAD 
                                                   Max.-Head-Change                         Max.-Flux-Residual
  Residual-Control   Outer-Iter.   Inner-Iter.     Column Row Layer    Maximum-Head-Change  Column Row Layer    Maximum-Flux-Residual          L2-NORM 
          0                 1           2             4    6     1       0.1184292464E+01       4    6    1         0.6360217860E+02      0.1004891861E+03
          0                 2           2             4    8     1       0.4128249698E+00       4    8    1         0.2205681711E+02      0.3998906762E+02
          0                 3           2             4    8     1       0.2391334319E+00       4    8    1         0.1287382032E+02      0.1938928055E+02
          0                 4           2             4    8     1       0.1468356356E+00       4    8    1         0.7922393059E+01      0.1152933849E+02
          0                 5           2             4    8     1       0.8641987340E-01       4    8    1         0.4671978496E+01      0.6662348785E+01
          0                 6           2             4    8     1       0.5079629025E-01       4    8    1         0.2748769451E+01      0.3894268005E+01
          0                 7           2             4    8     1       0.2983836246E-01       4    8    1         0.1615423759E+01      0.2282069363E+01
          0                 8           2             4    8     1       0.1752195868E-01       4    8    1         0.9488447985E+00      0.1337961867E+01
          0                 9           2             4    8     1       0.1028781636E-01       4    8    1         0.5571678223E+00      0.7844874413E+00
          0                10           2             4    8     1       0.6039902403E-02       4    8    1         0.3271283941E+00      0.4599668600E+00
                                                   Max.-Head-Change                         Max.-Flux-Residual
  Residual-Control   Outer-Iter.   Inner-Iter.     Column Row Layer    Maximum-Head-Change  Column Row Layer    Maximum-Flux-Residual          L2-NORM 
          0                11           2             4    8     1       0.3545839495E-02       4    8    1         0.1920528479E+00      0.2696905726E+00
          0                12           2             4    8     1       0.2081606485E-02       4    8    1         0.1127477044E+00      0.1581274235E+00
          0                13           2             4    8     1       0.1222003702E-02       4    8    1         0.6618903589E-01      0.9271567855E-01
          0                14           2             4    8     1       0.7173691325E-03       4    8    1         0.3885610051E-01      0.5436317978E-01
          0                15           2             4    8     1       0.4211241042E-03       4    8    1         0.2281018906E-01      0.3187590964E-01
          0                16           2             4    8     1       0.2472152564E-03       4    8    1         0.1339047325E-01      0.1869073501E-01
          0                17           2             4    8     1       0.1451237393E-03       4    8    1         0.7860692045E-02      0.1095963366E-01
          0                18           1             4    8     1       0.8519220105E-04       4    8    1         0.4614489856E-02      0.6426452265E-02

    ------------------------------------------------
       NWT REQUIRED           18 OUTER ITERATIONS 
       AND A TOTAL OF         35 INNER ITERATIONS.
    ------------------------------------------------

 NO OUTPUT CONTROL FOR STRESS PERIOD    9   TIME STEP   29
 
 SOLVING FOR HEAD 
                                                   Max.-Head-Change                         Max.-Flux-Residual
  Residual-Control   Outer-Iter.   Inner-Iter.     Column Row Layer    Maximum-Head-Change  Column Row Layer    Maximum-Flux-Residual          L2-NORM 
          0                 1           2             5    8     1       0.1519564794E+01       5    8    1         0.8261266135E+02      0.1504349289E+03
          0                 2           2             4    8     1      -0.1655056511E+01       4    8    1        -0.9052304939E+02      0.1878234159E+03
          0                 3           2             4    6     1      -0.8164989868E+00       4    6    1        -0.4490565918E+02      0.7632424167E+02
          0                 4           2             4    7     1      -0.3585993838E+00       4    7    1        -0.1970632013E+02      0.3143842036E+02
          0                 5           2             4    7     1      -0.2146574610E+00       4    7    1        -0.1196517388E+02      0.1566616884E+02
          0                 6           2             4    7     1      -0.1282526420E+00       4    7    1        -0.7150662949E+01      0.9108005936E+01
          0                 7           2             4    7     1      -0.7655415334E-01       4    7    1        -0.4271826299E+01      0.5378470649E+01
          0                 8           2             4    7     1      -0.4567244784E-01       4    7    1        -0.2549581938E+01      0.3186437707E+01
          0                 9           2             4    7     1      -0.2724117017E-01       4    7    1        -0.1520993102E+01      0.1889393548E+01
          0                10           2             4    7     1      -0.1624559967E-01       4    7    1        -0.9071544762E+00      0.1120593039E+01
                                                   Max.-Head-Change                         Max.-Flux-Residual
  Residual-Control   Outer-Iter.   Inner-Iter.     Column Row Layer    Maximum-Head-Change  Column Row Layer    Maximum-Flux-Residual          L2-NORM 
          0                11           2             4    7     1      -0.9687487813E-02       4    7    1        -0.5409769735E+00      0.6646957251E+00
          0                12           2             4    7     1      -0.5776513938E-02       4    7    1        -0.3225851085E+00      0.3943091112E+00
          0                13           2             4    7     1      -0.3444346272E-02       4    7    1        -0.1923492085E+00      0.2339318316E+00
          0                14           2             4    7     1      -0.2053703615E-02       4    7    1        -0.1146894566E+00      0.1387973956E+00
          0                15           1             4    7     1      -0.1224505130E-02       4    7    1        -0.6838280617E-01      0.8235942808E-01
          0                16           1             4    7     1      -0.7300898827E-03       4    7    1        -0.4077203657E-01      0.4887484399E-01
          0                17           1             4    7     1      -0.4352967948E-03       4    7    1        -0.2430921126E-01      0.2900662709E-01
          0                18           1             4    7     1      -0.2595304558E-03       4    7    1        -0.1449348420E-01      0.1721664032E-01
          0                19           1             4    7     1      -0.1547337640E-03       4    7    1        -0.8641089136E-02      0.1021970472E-01
          0                20           1             4    7     1      -0.9225201717E-04       4    7    1        -0.5151789240E-02      0.6066894476E-02

    ------------------------------------------------
       NWT REQUIRED           20 OUTER ITERATIONS 
       AND A TOTAL OF         34 INNER ITERATIONS.
    ------------------------------------------------

 NO OUTPUT CONTROL FOR STRESS PERIOD    9   TIME STEP   30



 STREAM LISTING     PERIOD      9   STEP       30

 LAYER ROW COL. STREAM  RCH.  FLOW INTO     FLOW TO   FLOW OUT OF   OVRLND.     DIRECT     STREAM       STREAM     STREAM     STREAM   STREAMBED  STREAMBED
                SEG.NO.  NO.  STRM. RCH.    AQUIFER    STRM. RCH.    RUNOFF     PRECIP       ET          HEAD       DEPTH      WIDTH   CONDCTNC.   GRADIENT

   1    1    1     1     1    2.2875E+01  2.3514E-01   2.2640E+01  0.000E+00  0.000E+00  0.000E+00  1.09419E+03  1.146E+00  1.260E+01  5.672E-02  1.382E+00
   1    2    2     1     2    2.2640E+01  3.6351E-01   2.2276E+01  0.000E+00  0.000E+00  0.000E+00  1.08920E+03  1.141E+00  1.254E+01  8.778E-02  1.380E+00
   1    3    3     1     3    2.2276E+01  3.0939E-01   2.1967E+01  0.000E+00  0.000E+00  0.000E+00  1.08355E+03  1.136E+00  1.247E+01  7.481E-02  1.379E+00
   1    3    4     1     4    2.1967E+01  2.8439E-01   2.1682E+01  0.000E+00  0.000E+00  0.000E+00  1.07854E+03  1.131E+00  1.240E+01  6.885E-02  1.377E+00
   1    4    5     2     1    1.9682E+01  3.1521E-01   1.9367E+01  0.000E+00  0.000E+00  0.000E+00  1.07298E+03  1.041E+00  1.200E+01  7.800E-02  1.347E+00
   1    5    6     2     2    1.9367E+01  2.4193E-01   1.9125E+01  0.000E+00  0.000E+00  0.000E+00  1.06754E+03  1.032E+00  1.200E+01  6.000E-02  1.344E+00
   1    6    6     2     3    1.9125E+01  2.4146E-01   1.8884E+01  0.000E+00  0.000E+00  0.000E+00  1.06282E+03  1.024E+00  1.200E+01  6.000E-02  1.341E+00
   1    7    6     2     4    1.8884E+01  2.4099E-01   1.8643E+01  0.000E+00  0.000E+00  0.000E+00  1.05809E+03  1.017E+00  1.200E+01  6.000E-02  1.339E+00
   1    8    6     2     5    1.8643E+01  2.4052E-01   1.8402E+01  0.000E+00  0.000E+00  0.000E+00  1.05337E+03  1.009E+00  1.200E+01  6.000E-02  1.336E+00
   1    3    5     3     1    2.0000E+00  2.8252E-01   1.7175E+00  0.000E+00  0.000E+00  0.000E+00  1.07555E+03  1.909E+00  9.636E+00  7.227E-02  1.955E+00
   1    3    6     3     2    1.7175E+00  2.4905E-01   1.4684E+00  0.000E+00  0.000E+00  0.000E+00  1.07264E+03  1.727E+00  8.909E+00  6.682E-02  1.864E+00
   1    3    7     3     3    1.4684E+00  1.9718E-01   1.2712E+00  0.000E+00  0.000E+00  0.000E+00  1.06987E+03  1.555E+00  8.218E+00  5.547E-02  1.777E+00
   1    4    8     3     4    1.2712E+00  2.2567E-01   1.0456E+00  0.000E+00  0.000E+00  0.000E+00  1.06682E+03  1.364E+00  7.455E+00  6.709E-02  1.682E+00
   1    5    8     3     5    1.0456E+00  1.5790E-01   8.8768E-01  0.000E+00  0.000E+00  0.000E+00  1.06362E+03  1.164E+00  6.655E+00  4.991E-02  1.582E+00
   1    6    8     3     6    8.8768E-01  5.5980E-02   8.3170E-01  0.000E+00  0.000E+00  0.000E+00  1.06158E+03  1.036E+00  6.145E+00  1.844E-02  1.518E+00
   1    5   10     4     1    1.0000E+01  9.0919E-02   9.9091E+00  0.000E+00  0.000E+00  0.000E+00  1.07836E+03  6.368E-01  1.000E+01  2.500E-02  1.212E+00
   1    5    9     4     2    9.9091E+00  1.8158E-01   9.7275E+00  0.000E+00  0.000E+00  0.000E+00  1.07154E+03  6.315E-01  1.000E+01  5.000E-02  1.211E+00
   1    6    8     4     3    9.7275E+00  1.2689E-01   9.6006E+00  0.000E+00  0.000E+00  0.000E+00  1.06381E+03  6.256E-01  1.000E+01  3.500E-02  1.209E+00
   1    6    8     5     1    1.0432E+01  2.2686E-01   1.0205E+01  0.000E+00  0.000E+00  0.000E+00  1.05868E+03  6.790E-01  1.542E+01  6.166E-02  1.226E+00
   1    7    7     5     2    1.0205E+01  2.7894E-01   9.9265E+00  0.000E+00  0.000E+00  0.000E+00  1.05417E+03  6.732E-01  1.519E+01  7.594E-02  1.224E+00
   1    8    7     5     3    9.9265E+00  1.9221E-01   9.7343E+00  0.000E+00  0.000E+00  0.000E+00  1.04992E+03  6.676E-01  1.497E+01  5.241E-02  1.223E+00
   1    8    6     5     4    9.7343E+00  1.3577E-01   9.5985E+00  0.000E+00  0.000E+00  0.000E+00  1.04691E+03  6.637E-01  1.482E+01  3.706E-02  1.221E+00
   1    9    6     6     1    9.5985E+00  2.2097E-01   9.3776E+00  0.000E+00  0.000E+00  0.000E+00  1.04341E+03  6.828E-01  1.200E+01  6.000E-02  1.228E+00
   1   10    7     6     2    9.3776E+00  2.2039E-01   9.1572E+00  0.000E+00  0.000E+00  0.000E+00  1.03885E+03  6.732E-01  1.200E+01  6.000E-02  1.224E+00
   1   11    7     6     3    9.1572E+00  2.1981E-01   8.9374E+00  0.000E+00  0.000E+00  0.000E+00  1.03430E+03  6.636E-01  1.200E+01  6.000E-02  1.221E+00
   1   12    7     6     4    8.9374E+00  2.1923E-01   8.7181E+00  0.000E+00  0.000E+00  0.000E+00  1.02974E+03  6.539E-01  1.200E+01  6.000E-02  1.218E+00
   1   13    7     6     5    8.7181E+00 -5.9933E-02   8.7781E+00  0.000E+00  0.000E+00  0.000E+00  1.02656E+03  6.503E-01  1.200E+01  2.400E-01 -8.324E-02
   1   14    9     7     1    1.5000E+02  1.3686E+00   1.4863E+02  0.000E+00  0.000E+00  0.000E+00  1.03987E+03  2.288E+00  5.529E+01  5.593E-01  8.156E-01
   1   13    8     7     2    1.4863E+02  1.9208E+00   1.4671E+02  0.000E+00  0.000E+00  0.000E+00  1.03478E+03  2.279E+00  5.525E+01  6.148E-01  1.042E+00
   1   13    7     7     3    1.4671E+02  1.6080E+00   1.4510E+02  0.000E+00  0.000E+00  0.000E+00  1.02969E+03  2.269E+00  5.521E+01  5.584E-01  9.599E-01
   1   13    6     8     1    1.5388E+02  9.7021E-01   1.5291E+02  0.000E+00  0.000E+00  0.000E+00  1.02472E+03  2.841E+00  4.119E+01  4.197E-01  7.705E-01
   1   13    5     8     2    1.5291E+02  2.4774E-01   1.5266E+02  0.000E+00  0.000E+00  0.000E+00  1.01846E+03  2.836E+00  4.113E+01  4.191E-01  1.970E-01
   1   13    4     8     3    1.5266E+02 -2.2305E+00   1.5489E+02  0.000E+00  0.000E+00  0.000E+00  1.01222E+03  2.843E+00  4.123E+01  4.201E+00 -1.770E-01
   1   13    3     8     4    1.5489E+02 -3.6299E+00   1.5852E+02  0.000E+00  0.000E+00  0.000E+00  1.00599E+03  2.863E+00  4.152E+01  4.231E+00 -2.860E-01
   1   13    2     8     5    1.5852E+02 -2.6882E+00   1.6121E+02  0.000E+00  0.000E+00  0.000E+00  9.99760E+02  2.885E+00  4.183E+01  4.263E+00 -2.102E-01
   1   13    1     8     6    1.6121E+02 -2.0437E+00   1.6326E+02  0.000E+00  0.000E+00  0.000E+00  9.94776E+02  2.901E+00  4.206E+01  2.572E+00 -2.649E-01
   1    8    6     9     1    1.8402E+01  0.0000E+00   1.8402E+01  0.000E+00  0.000E+00  0.000E+00  1.08202E+03  3.267E+00  4.000E+00  0.000E+00  2.089E+00
   1    8    5     9     2    1.8402E+01  0.0000E+00   1.8402E+01  0.000E+00  0.000E+00  0.000E+00  1.08152E+03  3.267E+00  4.000E+00  0.000E+00  2.089E+00





UNSATURATED ZONE PACKAGE VOLUMETRIC BUDGET FOR  TIME STEP    30 STRESS PERIOD    9
  ------------------------------------------------------------------------------



     CUMULATIVE VOLUMES      L**3       RATES FOR THIS TIME STEP      L**3/T
     ------------------                 ------------------------

           IN:                                      IN:
           ---                                      ---
        INFILTRATION =  3117936620.2317          INFILTRATION =         619.2502

          OUT:                                     OUT:
          ----                                     ----
              UZF ET =   392755269.9020                UZF ET =          49.5675
        UZF RECHARGE =  1827543308.9609          UZF RECHARGE =         126.3713

            IN - OUT =   897638041.3687              IN - OUT =         443.3114

          STORAGE:                                 STORAGE:
          --------                                 --------
      STORAGE CHANGE =   897811209.1484        STORAGE CHANGE =         443.3114

 PERCENT DISCREPANCY IS DIFFERENCE BETWEEN IN-OUT MINUS CHANGE IN STORAGE
 DIVIDED BY THE AVERAGE OF IN AND OUT TIMES 100

 PERCENT DISCREPANCY =          -0.00     PERCENT DISCREPANCY =           0.00






1
  VOLUMETRIC BUDGET FOR AGRICULTURAL FIELDS AT  END OF TIME STEP   30, STRESS PERIOD   9
  ------------------------------------------------------------------------------

     CUMULATIVE VOLUMES      L**3       RATES FOR THIS TIME STEP      L**3/T
     ------------------                 ------------------------

           IN:                                      IN:
           ---                                      ---
               AG WELLS  =  2924281600.0000                 AG WELLS  =         600.0000
      DIVERSION SEGMENTS =   175755744.0000        DIVERSION SEGMENTS =          18.4023
           GW IRRIGATION =           0.0000             GW IRRIGATION =           0.0000
           SW IRRIGATION =           0.0000             SW IRRIGATION =           0.0000
        SYSTEM LOSSES GW =           0.0000          SYSTEM LOSSES GW =           0.0000
        SYSTEM LOSSES SW =           0.0000          SYSTEM LOSSES SW =           0.0000

                TOTAL IN =  3100037376.0000                  TOTAL IN =         618.4023

          OUT:                                     OUT:
          ----                                     ----
               AG WELLS  =           0.0000                 AG WELLS  =           0.0000
      DIVERSION SEGMENTS =           0.0000        DIVERSION SEGMENTS =           0.0000
           GW IRRIGATION =  2924281600.0000             GW IRRIGATION =         600.0000
           SW IRRIGATION =   175759088.0000             SW IRRIGATION =          18.4027
        SYSTEM LOSSES GW =           0.0000          SYSTEM LOSSES GW =           0.0000
        SYSTEM LOSSES SW =           0.0000          SYSTEM LOSSES SW =           0.0000

               TOTAL OUT =  3100040704.0000                 TOTAL OUT =         618.4026

                IN - OUT =       -3328.0000                  IN - OUT =      -3.6621E-04

     PERCENT DISCREPANCY =          -0.00         PERCENT DISCREPANCY =          -0.00



1
  VOLUMETRIC BUDGET FOR ENTIRE MODEL AT END OF TIME STEP   30, STRESS PERIOD   9
  ------------------------------------------------------------------------------

     CUMULATIVE VOLUMES      L**3       RATES FOR THIS TIME STEP      L**3/T
     ------------------                 ------------------------

           IN:                                      IN:
           ---                                      ---
             STORAGE     =  2987410432.0000               STORAGE     =         472.6811
       CONSTANT HEAD     =           0.0000         CONSTANT HEAD     =           0.0000
     HEAD DEP BOUNDS     =     6082182.0000       HEAD DEP BOUNDS     =           0.2880
      STREAM LEAKAGE     =   250998784.0000        STREAM LEAKAGE     =          11.8698
        UZF RECHARGE     =  1827542784.0000          UZF RECHARGE     =         126.3713
               GW ET     =           0.0000                 GW ET     =           0.0000
     SURFACE LEAKAGE     =           0.0000       SURFACE LEAKAGE     =           0.0000
           AG WELLS      =           0.0000             AG WELLS      =           0.0000

                TOTAL IN =  5072034304.0000                  TOTAL IN =         611.2101

          OUT:                                     OUT:
          ----                                     ----
             STORAGE     =  1924352000.0000               STORAGE     =           0.2752
       CONSTANT HEAD     =           0.0000         CONSTANT HEAD     =           0.0000
     HEAD DEP BOUNDS     =     6090038.0000       HEAD DEP BOUNDS     =           0.2877
      STREAM LEAKAGE     =   217301920.0000        STREAM LEAKAGE     =          10.6523
        UZF RECHARGE     =           0.0000          UZF RECHARGE     =           0.0000
               GW ET     =           0.0000                 GW ET     =           0.0000
     SURFACE LEAKAGE     =           0.0000       SURFACE LEAKAGE     =           0.0000
           AG WELLS      =  2924281600.0000             AG WELLS      =         600.0000

               TOTAL OUT =  5072025600.0000                 TOTAL OUT =         611.2152

                IN - OUT =        8704.0000                  IN - OUT =      -5.0659E-03

     PERCENT DISCREPANCY =           0.00         PERCENT DISCREPANCY =          -0.00






         TIME SUMMARY AT END OF TIME STEP   30 IN STRESS PERIOD    9
                    SECONDS     MINUTES      HOURS       DAYS        YEARS
                    -----------------------------------------------------------
   TIME STEP LENGTH  87667.      1461.1      24.352      1.0147     2.77799E-03
 STRESS PERIOD TIME 2.63000E+06  43833.      730.56      30.440     8.33397E-02
         TOTAL TIME 2.11264E+07 3.52107E+05  5868.4      244.52     0.66945    
1
1
                            STRESS PERIOD NO.   10, LENGTH =   2630000.    
                            -----------------------------------------------

                              NUMBER OF TIME STEPS =    30

                               MULTIPLIER FOR DELT =     1.000

                            INITIAL TIME STEP SIZE =   87666.66    

 REUSING NON-PARAMETER GHB CELLS FROM LAST STRESS PERIOD

      2 GHB CELLS

 REUSING STREAM SEGMENT DATA FROM LAST STRESS PERIOD



            AREAL INFILTRATION RATE
 READING ON UNIT   19 WITH FORMAT: (FREE)              

            1           2           3           4           5           6           7           8           9          10
 ........................................................................................................................
   1   1.0000E-10  2.0000E-10   0.000       0.000       0.000       0.000       0.000       0.000       0.000       0.000    
   2   2.0000E-10  1.0000E-10  2.0000E-10   0.000       0.000      8.0000E-10  8.0000E-10  5.0000E-10   0.000       0.000    
   3    0.000      5.0000E-10  1.0000E-10  1.0000E-10  8.0000E-10  8.0000E-10  5.0000E-10  5.0000E-10   0.000       0.000    
   4   8.0000E-10  5.0000E-10  1.0000E-10  1.0000E-10  1.0000E-10  1.0000E-10  1.0000E-10  1.0000E-10  2.0000E-10   0.000    
   5   8.0000E-10  5.0000E-10  1.0000E-10  1.0000E-10  1.0000E-10  1.0000E-10  1.0000E-10  1.0000E-10  1.0000E-10  1.0000E-10
   6   8.0000E-10  5.0000E-10  5.0000E-10  2.0000E-10  2.0000E-10  1.0000E-10  1.0000E-10  1.0000E-10  1.0000E-10  5.0000E-10
   7   8.0000E-10  5.0000E-10  5.0000E-10  2.0000E-10  2.0000E-10  1.0000E-10  1.0000E-10  2.0000E-10  2.0000E-10   0.000    
   8    0.000      5.0000E-10  5.0000E-10  2.0000E-10  2.0000E-10  1.0000E-10  1.0000E-10  2.0000E-10  5.0000E-10   0.000    
   9    0.000      5.0000E-10  5.0000E-10  2.0000E-10  2.0000E-10  1.0000E-10  1.0000E-10  2.0000E-10  5.0000E-10   0.000    
  10    0.000      5.0000E-10  5.0000E-10  2.0000E-10  2.0000E-10  1.0000E-10  1.0000E-10  2.0000E-10  5.0000E-10  8.0000E-10
  11    0.000      1.0000E-10  1.0000E-10  1.0000E-10  1.0000E-10  1.0000E-10  1.0000E-10  2.0000E-10  5.0000E-10   0.000    
  12   1.0000E-10  1.0000E-10  1.0000E-10  1.0000E-10  1.0000E-10  1.0000E-10  1.0000E-10  1.0000E-10  2.0000E-10   0.000    
  13   1.0000E-10  1.0000E-10  2.0000E-10  2.0000E-10  2.0000E-10  2.0000E-10  2.0000E-10  1.0000E-10  1.0000E-10   0.000    
  14    0.000      2.0000E-10  5.0000E-10  5.0000E-10  5.0000E-10  5.0000E-10  5.0000E-10  2.0000E-10  1.0000E-10   0.000    
  15    0.000       0.000      8.0000E-10  8.0000E-10  8.0000E-10  8.0000E-10   0.000       0.000       0.000       0.000    

                  ET RATE =  7.500000E-08

 USING ET EXTINCTION DEPTH FROM PREVIOUS STRESS PERIOD. CURRENT PERIOD IS:      10

 USING EXTINCTION WATER CONTENT FROM PREVIOUS STRESS PERIOD. CURRENT PERIOD IS:      10

 USING AIR ENTRY PRESSURE FROM PREVIOUS STRESS PERIOD. CURRENT PERIOD IS:      10

 USING ROOT PRESSURE HEAD FROM PREVIOUS STRESS PERIOD. CURRENT PERIOD IS:      10

 USING ROOT ACTIVITY FROM PREVIOUS STRESS PERIOD. CURRENT PERIOD IS:      10

 PROCESSING AG STRESS PERIOD DATA

 READING AG STRESS PERIOD DATA

 READING IRRIGATION SEGMENT

 READING IRRIGATION WELL

 READING SUPPLEMENTAL WELL

 END PROCESSING AG STRESS PERIOD DATA OPTIONS
 
 SOLVING FOR HEAD 
                                                   Max.-Head-Change                         Max.-Flux-Residual
  Residual-Control   Outer-Iter.   Inner-Iter.     Column Row Layer    Maximum-Head-Change  Column Row Layer    Maximum-Flux-Residual          L2-NORM 
          0                 1           2             4    6     1       0.1180102134E+01       4    6    1         0.6339254550E+02      0.9907096345E+02
          0                 2           2             4    8     1       0.4099690698E+00       4    8    1         0.2191552228E+02      0.3998790033E+02
          0                 3           2             4    8     1       0.2427232815E+00       4    8    1         0.1306445925E+02      0.2018029821E+02
          0                 4           2             4    8     1       0.1430828768E+00       4    8    1         0.7726020957E+01      0.1134038761E+02
          0                 5           2             4    8     1       0.8416879659E-01       4    8    1         0.4551964351E+01      0.6582962276E+01
          0                 6           2             4    8     1       0.4946174189E-01       4    8    1         0.2677001290E+01      0.3851631297E+01
          0                 7           2             4    8     1       0.2905155500E-01       4    8    1         0.1572937697E+01      0.2257430553E+01
          0                 8           2             4    8     1       0.1705931366E-01       4    8    1         0.9238136745E+00      0.1323493123E+01
          0                 9           2             4    8     1       0.1001612837E-01       4    8    1         0.5424543449E+00      0.7759694085E+00
          0                10           2             4    8     1       0.5880452742E-02       4    8    1         0.3184893015E+00      0.4549524564E+00
                                                   Max.-Head-Change                         Max.-Flux-Residual
  Residual-Control   Outer-Iter.   Inner-Iter.     Column Row Layer    Maximum-Head-Change  Column Row Layer    Maximum-Flux-Residual          L2-NORM 
          0                11           2             4    8     1       0.3452288974E-02       4    8    1         0.1869830864E+00      0.2667397118E+00
          0                12           2             4    8     1       0.2026727567E-02       4    8    1         0.1097733426E+00      0.1563913412E+00
          0                13           2             4    8     1       0.1189812722E-02       4    8    1         0.6444423763E-01      0.9169443540E-01
          0                14           2             4    8     1       0.6984871297E-03       4    8    1         0.3783264242E-01      0.5376248623E-01
          0                15           2             4    8     1       0.4100488231E-03       4    8    1         0.2220987010E-01      0.3152259904E-01
          0                16           2             4    8     1       0.2407190756E-03       4    8    1         0.1303835551E-01      0.1848293386E-01
          0                17           2             4    8     1       0.1413134329E-03       4    8    1         0.7654158383E-02      0.1083741704E-01
          0                18           1             4    8     1       0.8295728143E-04       4    8    1         0.4493348494E-02      0.6354573294E-02

    ------------------------------------------------
       NWT REQUIRED           18 OUTER ITERATIONS 
       AND A TOTAL OF         35 INNER ITERATIONS.
    ------------------------------------------------

 NO OUTPUT CONTROL FOR STRESS PERIOD   10   TIME STEP    1
 
 SOLVING FOR HEAD 
                                                   Max.-Head-Change                         Max.-Flux-Residual
  Residual-Control   Outer-Iter.   Inner-Iter.     Column Row Layer    Maximum-Head-Change  Column Row Layer    Maximum-Flux-Residual          L2-NORM 
          0                 1           2             5    8     1       0.1528691389E+01       5    8    1         0.8316205938E+02      0.1500235907E+03
          0                 2           2             4    7     1       0.7222731646E+00       4    7    1         0.3854008133E+02      0.6327319527E+02
          0                 3           2             4    6     1       0.3096011565E+00       4    6    1         0.1663000421E+02      0.2354504279E+02
          0                 4           2             4    6     1       0.1822223362E+00       4    6    1         0.9858175872E+01      0.1102465203E+02
          0                 5           2             4    6     1       0.1067500541E+00       4    6    1         0.5795228426E+01      0.5984370129E+01
          0                 6           2             4    6     1       0.6239369099E-01       4    6    1         0.3392983653E+01      0.3425291641E+01
          0                 7           2             4    6     1       0.3642704649E-01       4    6    1         0.1982573347E+01      0.1988881104E+01
          0                 8           2             4    6     1       0.2125521123E-01       4    6    1         0.1157313326E+01      0.1158849034E+01
          0                 9           2             4    6     1       0.1239901181E-01       4    6    1         0.6752459770E+00      0.6757381858E+00
          0                10           2             4    6     1       0.7231847242E-02       4    6    1         0.3938842433E+00      0.3940861361E+00
                                                   Max.-Head-Change                         Max.-Flux-Residual
  Residual-Control   Outer-Iter.   Inner-Iter.     Column Row Layer    Maximum-Head-Change  Column Row Layer    Maximum-Flux-Residual          L2-NORM 
          0                11           2             4    6     1       0.4217759809E-02       4    6    1         0.2297329690E+00      0.2298306597E+00
          0                12           2             4    6     1       0.2459799586E-02       4    6    1         0.1339837814E+00      0.1340356142E+00
          0                13           2             4    6     1       0.1434532090E-02       4    6    1         0.7813907716E-01      0.7816791207E-01
          0                14           2             4    6     1       0.8365986332E-03       4    6    1         0.4556988285E-01      0.4558630838E-01
          0                15           2             4    6     1       0.4878903243E-03       4    6    1         0.2657567746E-01      0.2658514502E-01
          0                16           2             4    6     1       0.2845288745E-03       4    6    1         0.1549848245E-01      0.1550397160E-01
          0                17           2             4    6     1       0.1659319546E-03       4    6    1         0.9038434315E-02      0.9041626153E-02
          0                18           1             4    6     1       0.9676838272E-04       4    6    1         0.5271046355E-02      0.5272905051E-02

    ------------------------------------------------
       NWT REQUIRED           18 OUTER ITERATIONS 
       AND A TOTAL OF         35 INNER ITERATIONS.
    ------------------------------------------------

 NO OUTPUT CONTROL FOR STRESS PERIOD   10   TIME STEP    2
 
 SOLVING FOR HEAD 
                                                   Max.-Head-Change                         Max.-Flux-Residual
  Residual-Control   Outer-Iter.   Inner-Iter.     Column Row Layer    Maximum-Head-Change  Column Row Layer    Maximum-Flux-Residual          L2-NORM 
          0                 1           2             4    8     1       0.1591805697E+01       4    8    1         0.8592403764E+02      0.1322804456E+03
          0                 2           2             5    7     1       0.7416748831E+00       5    7    1         0.4005346990E+02      0.6481125568E+02
          0                 3           2             5    6     1       0.3736621739E+00       5    6    1         0.2039488729E+02      0.2689403216E+02
          0                 4           2             5    6     1       0.1062523348E+00       5    6    1         0.5793471931E+01      0.9190551167E+01
          0                 5           2             4    7     1       0.4600057465E-01       4    7    1         0.2470963674E+01      0.3951130299E+01
          0                 6           2             4    7     1       0.2711648988E-01       4    7    1         0.1464753098E+01      0.2058648319E+01
          0                 7           2             4    7     1       0.1592553713E-01       4    7    1         0.8626293482E+00      0.1161973176E+01
          0                 8           2             4    7     1       0.9335838646E-02       4    7    1         0.5063853423E+00      0.6708018595E+00
          0                 9           2             4    7     1       0.5467776012E-02       4    7    1         0.2967827006E+00      0.3893675409E+00
          0                10           2             4    7     1       0.3200845873E-02       4    7    1         0.1737980041E+00      0.2262919524E+00
                                                   Max.-Head-Change                         Max.-Flux-Residual
  Residual-Control   Outer-Iter.   Inner-Iter.     Column Row Layer    Maximum-Head-Change  Column Row Layer    Maximum-Flux-Residual          L2-NORM 
          0                11           2             4    7     1       0.1873330439E-02       4    7    1         0.1017355803E+00      0.1315567503E+00
          0                12           1             4    7     1       0.1096248311E-02       4    7    1         0.5954003726E-01      0.7649117463E-01
          0                13           1             4    7     1       0.6414651154E-03       4    7    1         0.3484147500E-01      0.4447883630E-01
          0                14           1             4    7     1       0.3753349755E-03       4    7    1         0.2038715650E-01      0.2586671559E-01
          0                15           1             4    7     1       0.2196105022E-03       4    7    1         0.1192889556E-01      0.1504448560E-01
          0                16           1             4    7     1       0.1284926796E-03       4    7    1         0.6979634529E-02      0.8751104577E-02
          0                17           1             4    7     1       0.7517898992E-04       4    7    1         0.4083727348E-02      0.5090943589E-02

    ------------------------------------------------
       NWT REQUIRED           17 OUTER ITERATIONS 
       AND A TOTAL OF         28 INNER ITERATIONS.
    ------------------------------------------------

 NO OUTPUT CONTROL FOR STRESS PERIOD   10   TIME STEP    3
 
 SOLVING FOR HEAD 
                                                   Max.-Head-Change                         Max.-Flux-Residual
  Residual-Control   Outer-Iter.   Inner-Iter.     Column Row Layer    Maximum-Head-Change  Column Row Layer    Maximum-Flux-Residual          L2-NORM 
          0                 1           2             4    6     1       0.1621823219E+01       4    6    1         0.8738076873E+02      0.1312584215E+03
          0                 2           2             4    6     1       0.5353323854E+00       4    6    1         0.2888753560E+02      0.4174825957E+02
          0                 3           2             4    6     1       0.1610926808E+00       4    6    1         0.8678438201E+01      0.1487425355E+02
          0                 4           2             5    6     1      -0.4641284264E+00       5    6    1        -0.2557180595E+02      0.5793301589E+02
          0                 5           2             5    7     1      -0.2337537612E+00       5    7    1        -0.1307568449E+02      0.2041145549E+02
          0                 6           2             4    8     1      -0.1275986391E+00       4    8    1        -0.7060516613E+01      0.7886558346E+01
          0                 7           2             4    8     1      -0.7660836631E-01       4    8    1        -0.4254084505E+01      0.4390043326E+01
          0                 8           2             4    8     1      -0.4589286554E-01       4    8    1        -0.2552986369E+01      0.2577838781E+01
          0                 9           2             4    8     1      -0.2746162306E-01       4    8    1        -0.1529040567E+01      0.1534177289E+01
          0                10           2             4    8     1      -0.1642321572E-01       4    8    1        -0.9148431950E+00      0.9161208687E+00
                                                   Max.-Head-Change                         Max.-Flux-Residual
  Residual-Control   Outer-Iter.   Inner-Iter.     Column Row Layer    Maximum-Head-Change  Column Row Layer    Maximum-Flux-Residual          L2-NORM 
          0                11           2             4    8     1      -0.9818886852E-02       4    8    1        -0.5470766166E+00      0.5474786386E+00
          0                12           2             4    8     1      -0.5869483414E-02       4    8    1        -0.3270644424E+00      0.3272235885E+00
          0                13           2             4    8     1      -0.3508345411E-02       4    8    1        -0.1955050577E+00      0.1955800272E+00
          0                14           2             4    8     1      -0.2096937882E-02       4    8    1        -0.1168558671E+00      0.1168952548E+00
          0                15           2             4    8     1      -0.1253307514E-02       4    8    1        -0.6984339519E-01      0.6986539783E-01
          0                16           2             4    8     1      -0.7490705184E-03       4    8    1        -0.4174359107E-01      0.4175629025E-01
          0                17           2             4    8     1      -0.4476956250E-03       4    8    1        -0.2494868482E-01      0.2495613992E-01
          0                18           2             4    8     1      -0.2675710674E-03       4    8    1        -0.1491079489E-01      0.1491520984E-01
          0                19           2             4    8     1      -0.1599160865E-03       4    8    1        -0.8911487380E-02      0.8914113652E-02
          0                20           1             4    8     1      -0.9557452201E-04       4    8    1        -0.5325941011E-02      0.5327506875E-02

    ------------------------------------------------
       NWT REQUIRED           20 OUTER ITERATIONS 
       AND A TOTAL OF         39 INNER ITERATIONS.
    ------------------------------------------------

 NO OUTPUT CONTROL FOR STRESS PERIOD   10   TIME STEP    4
 
 SOLVING FOR HEAD 
                                                   Max.-Head-Change                         Max.-Flux-Residual
  Residual-Control   Outer-Iter.   Inner-Iter.     Column Row Layer    Maximum-Head-Change  Column Row Layer    Maximum-Flux-Residual          L2-NORM 
          0                 1           2             5    7     1       0.1594825724E+01       5    7    1         0.8537303456E+02      0.1546694947E+03
          0                 2           2             4    7     1       0.5232732299E+00       4    7    1         0.2776788188E+02      0.5230800870E+02
          0                 3           2             4    7     1       0.3180085153E+00       4    7    1         0.1704807091E+02      0.2519633123E+02
          0                 4           2             4    7     1       0.1879718674E+00       4    7    1         0.1012932661E+02      0.1367959482E+02
          0                 5           2             4    7     1       0.1107472860E+00       4    7    1         0.5982161801E+01      0.7853265721E+01
          0                 6           2             4    7     1       0.6515368036E-01       4    7    1         0.3523094468E+01      0.4574509522E+01
          0                 7           2             4    7     1       0.3830755855E-01       4    7    1         0.2072300781E+01      0.2674064944E+01
          0                 8           2             4    7     1       0.2251904205E-01       4    7    1         0.1218337509E+01      0.1564718462E+01
          0                 9           2             4    7     1       0.1323799006E-01       4    7    1         0.7161844297E+00      0.9160398909E+00
          0                10           2             4    7     1       0.7782916900E-02       4    7    1         0.4210170360E+00      0.5365032786E+00
                                                   Max.-Head-Change                         Max.-Flux-Residual
  Residual-Control   Outer-Iter.   Inner-Iter.     Column Row Layer    Maximum-Head-Change  Column Row Layer    Maximum-Flux-Residual          L2-NORM 
          0                11           2             4    7     1       0.4576468326E-02       4    7    1         0.2475299941E+00      0.3143478461E+00
          0                12           2             4    7     1       0.2691504375E-02       4    7    1         0.1455546651E+00      0.1842603457E+00
          0                13           2             4    7     1       0.1583215087E-02       4    7    1         0.8560557767E-01      0.1080532137E+00
          0                14           2             4    7     1       0.9314639617E-03       4    7    1         0.5035685743E-01      0.6339092901E-01
          0                15           2             4    7     1       0.5481171265E-03       4    7    1         0.2962760819E-01      0.3720472687E-01
          0                16           2             4    7     1       0.3225976005E-03       4    7    1         0.1743474896E-01      0.2184479027E-01
          0                17           1             4    7     1       0.1899014607E-03       4    7    1         0.1026160108E-01      0.1283137139E-01
          0                18           1             4    7     1       0.1118082141E-03       4    7    1         0.6040790995E-02      0.7539977548E-02
          0                19           1             4    7     1       0.6584095081E-04       4    7    1         0.3556727145E-02      0.4432358764E-02

    ------------------------------------------------
       NWT REQUIRED           19 OUTER ITERATIONS 
       AND A TOTAL OF         35 INNER ITERATIONS.
    ------------------------------------------------

 NO OUTPUT CONTROL FOR STRESS PERIOD   10   TIME STEP    5
 
 SOLVING FOR HEAD 
                                                   Max.-Head-Change                         Max.-Flux-Residual
  Residual-Control   Outer-Iter.   Inner-Iter.     Column Row Layer    Maximum-Head-Change  Column Row Layer    Maximum-Flux-Residual          L2-NORM 
          0                 1           2             4    6     1       0.1368124673E+01       4    6    1         0.7408097672E+02      0.1010282672E+03
          0                 2           2             4    8     1       0.5503471935E+00       4    8    1         0.2973998416E+02      0.4493225596E+02
          0                 3           2             4    8     1       0.3230888924E+00       4    8    1         0.1749236793E+02      0.2395553208E+02
          0                 4           2             4    8     1       0.1896041921E+00       4    8    1         0.1027361347E+02      0.1368871435E+02
          0                 5           2             4    8     1       0.1112121512E+00       4    8    1         0.6028351375E+01      0.7964531682E+01
          0                 6           2             4    8     1       0.6521412886E-01       4    8    1         0.3535728723E+01      0.4653381782E+01
          0                 7           2             4    8     1       0.3823586025E-01       4    8    1         0.2073270476E+01      0.2721583681E+01
          0                 8           2             4    8     1       0.2241649154E-01       4    8    1         0.1215566651E+01      0.1592146672E+01
          0                 9           2             4    8     1       0.1314154111E-01       4    8    1         0.7126432445E+00      0.9313014194E+00
          0                10           2             4    8     1       0.7703962498E-02       4    8    1         0.4177812434E+00      0.5447763025E+00
                                                   Max.-Head-Change                         Max.-Flux-Residual
  Residual-Control   Outer-Iter.   Inner-Iter.     Column Row Layer    Maximum-Head-Change  Column Row Layer    Maximum-Flux-Residual          L2-NORM 
          0                11           2             4    8     1       0.4516219128E-02       4    8    1         0.2449151478E+00      0.3186876932E+00
          0                12           2             4    8     1       0.2647468523E-02       4    8    1         0.1435739691E+00      0.1864367237E+00
          0                13           2             4    8     1       0.1551967438E-02       4    8    1         0.8416487926E-01      0.1090727794E+00
          0                14           2             4    8     1       0.9097686771E-03       4    8    1         0.4933807475E-01      0.6381449939E-01
          0                15           2             4    8     1       0.5333057456E-03       4    8    1         0.2892211968E-01      0.3733701119E-01
          0                16           2             4    8     1       0.3126213685E-03       4    8    1         0.1695410923E-01      0.2184620400E-01
          0                17           2             4    8     1       0.1832560473E-03       4    8    1         0.9938411388E-02      0.1278285086E-01
          0                18           1             4    8     1       0.1074225443E-03       4    8    1         0.5825808891E-02      0.7479866419E-02
          0                19           1             4    8     1       0.6296944118E-04       4    8    1         0.3415016476E-02      0.4376968866E-02

    ------------------------------------------------
       NWT REQUIRED           19 OUTER ITERATIONS 
       AND A TOTAL OF         36 INNER ITERATIONS.
    ------------------------------------------------

 NO OUTPUT CONTROL FOR STRESS PERIOD   10   TIME STEP    6
 
 SOLVING FOR HEAD 
                                                   Max.-Head-Change                         Max.-Flux-Residual
  Residual-Control   Outer-Iter.   Inner-Iter.     Column Row Layer    Maximum-Head-Change  Column Row Layer    Maximum-Flux-Residual          L2-NORM 
          0                 1           2             4    7     1       0.1716739934E+01       4    7    1         0.9235558765E+02      0.1396705304E+03
          0                 2           2             4    6     1       0.5449796317E+00       5    8    1         0.2979456587E+02      0.5208186582E+02
          0                 3           2             4    6     1       0.3215325974E+00       4    6    1         0.1736573110E+02      0.2138395470E+02
          0                 4           2             4    6     1       0.1884374615E+00       4    6    1         0.1022817866E+02      0.1086525103E+02
          0                 5           2             4    6     1       0.1100810011E+00       4    6    1         0.5989356165E+01      0.6091542115E+01
          0                 6           2             4    6     1       0.6420632894E-01       4    6    1         0.3497459792E+01      0.3515553048E+01
          0                 7           2             4    6     1       0.3742056760E-01       4    6    1         0.2039549538E+01      0.2043423684E+01
          0                 8           2             4    6     1       0.2180113975E-01       4    6    1         0.1188572951E+01      0.1189661385E+01
          0                 9           2             4    6     1       0.1269893529E-01       4    6    1         0.6924280357E+00      0.6928325271E+00
          0                10           2             4    6     1       0.7396317224E-02       4    6    1         0.4033229609E+00      0.4035077208E+00
                                                   Max.-Head-Change                         Max.-Flux-Residual
  Residual-Control   Outer-Iter.   Inner-Iter.     Column Row Layer    Maximum-Head-Change  Column Row Layer    Maximum-Flux-Residual          L2-NORM 
          0                11           2             4    6     1       0.4307685544E-02       4    6    1         0.2349072163E+00      0.2350023611E+00
          0                12           2             4    6     1       0.2508780428E-02       4    6    1         0.1368114558E+00      0.1368635873E+00
          0                13           2             4    6     1       0.1461088220E-02       4    6    1         0.7967828326E-01      0.7970774187E-01
          0                14           2             4    6     1       0.8509181715E-03       4    6    1         0.4640376176E-01      0.4642066363E-01
          0                15           2             4    6     1       0.4955619419E-03       4    6    1         0.2702491089E-01      0.2703468154E-01
          0                16           2             4    6     1       0.2886074170E-03       4    6    1         0.1573889664E-01      0.1574456596E-01
          0                17           2             4    6     1       0.1680802661E-03       4    6    1         0.9166082470E-02      0.9169378126E-02
          0                18           1             4    6     1       0.9788717932E-04       4    6    1         0.5338176984E-02      0.5340094559E-02

    ------------------------------------------------
       NWT REQUIRED           18 OUTER ITERATIONS 
       AND A TOTAL OF         35 INNER ITERATIONS.
    ------------------------------------------------

 NO OUTPUT CONTROL FOR STRESS PERIOD   10   TIME STEP    7
 
 SOLVING FOR HEAD 
                                                   Max.-Head-Change                         Max.-Flux-Residual
  Residual-Control   Outer-Iter.   Inner-Iter.     Column Row Layer    Maximum-Head-Change  Column Row Layer    Maximum-Flux-Residual          L2-NORM 
          0                 1           2             4    8     1       0.1607156926E+01       4    8    1         0.8704872765E+02      0.1304107194E+03
          0                 2           2             5    7     1       0.6011421590E+00       5    7    1         0.3252099155E+02      0.5382375274E+02
          0                 3           2             5    6     1       0.3235918560E+00       5    6    1         0.1775894129E+02      0.2370824728E+02
          0                 4           2             5    6     1       0.1784688079E+00       5    6    1         0.9831170423E+01      0.1213981172E+02
          0                 5           2             4    7     1       0.6785337510E-01       4    7    1         0.3670866457E+01      0.4718688716E+01
          0                 6           2             4    7     1       0.3977232649E-01       4    7    1         0.2157975104E+01      0.2320106235E+01
          0                 7           2             4    7     1       0.2326584340E-01       4    7    1         0.1264272458E+01      0.1288949284E+01
          0                 8           2             4    7     1       0.1359582978E-01       4    7    1         0.7393783432E+00      0.7434986215E+00
          0                 9           2             4    7     1       0.7940724518E-02       4    7    1         0.4320120115E+00      0.4328700504E+00
          0                10           2             4    7     1       0.4636551110E-02       4    7    1         0.2523018472E+00      0.2525519334E+00
                                                   Max.-Head-Change                         Max.-Flux-Residual
  Residual-Control   Outer-Iter.   Inner-Iter.     Column Row Layer    Maximum-Head-Change  Column Row Layer    Maximum-Flux-Residual          L2-NORM 
          0                11           1             4    7     1       0.2706878558E-02       4    7    1         0.1473126523E+00      0.1474128735E+00
          0                12           1             4    7     1       0.1580197037E-02       4    7    1         0.8600148275E-01      0.8605035585E-01
          0                13           1             4    7     1       0.9224393164E-03       4    7    1         0.5020470472E-01      0.5023092487E-01
          0                14           1             4    7     1       0.5384635234E-03       4    7    1         0.2930683698E-01      0.2932153502E-01
          0                15           1             4    7     1       0.3143190323E-03       4    7    1         0.1710749421E-01      0.1711590508E-01
          0                16           1             4    7     1       0.1834775784E-03       4    7    1         0.9986200260E-02      0.9991061646E-02
          0                17           1             4    7     1       0.1071011852E-03       4    7    1         0.5829245270E-02      0.5832069017E-02
          0                18           1             4    7     1       0.6251799274E-04       4    7    1         0.3402698523E-02      0.3404342813E-02

    ------------------------------------------------
       NWT REQUIRED           18 OUTER ITERATIONS 
       AND A TOTAL OF         28 INNER ITERATIONS.
    ------------------------------------------------

 NO OUTPUT CONTROL FOR STRESS PERIOD   10   TIME STEP    8
 
 SOLVING FOR HEAD 
                                                   Max.-Head-Change                         Max.-Flux-Residual
  Residual-Control   Outer-Iter.   Inner-Iter.     Column Row Layer    Maximum-Head-Change  Column Row Layer    Maximum-Flux-Residual          L2-NORM 
          0                 1           2             4    6     1       0.1562494625E+01       4    6    1         0.8466917125E+02      0.9772814616E+02
          0                 2           2             5    7     1      -0.1897623286E+01       5    8    1        -0.1007892664E+03      0.2316126290E+03
          0                 3           2             4    7     1      -0.5003436224E+00       4    7    1        -0.2800651266E+02      0.4164557602E+02
          0                 4           2             4    6     1      -0.2174696529E+00       4    6    1        -0.1206700719E+02      0.1485574475E+02
          0                 5           2             4    6     1      -0.1298774525E+00       4    6    1        -0.7247696533E+01      0.7725931503E+01
          0                 6           2             4    6     1      -0.7733748589E-01       4    6    1        -0.4325703847E+01      0.4408881051E+01
          0                 7           2             4    6     1      -0.4598270124E-01       4    6    1        -0.2575042103E+01      0.2590460951E+01
          0                 8           2             4    6     1      -0.2731900164E-01       4    6    1        -0.1530799191E+01      0.1534025696E+01
          0                 9           2             4    6     1      -0.1622418993E-01       4    6    1        -0.9093877000E+00      0.9101945083E+00
          0                10           2             4    6     1      -0.9633227051E-02       4    6    1        -0.5400371434E+00      0.5402873940E+00
                                                   Max.-Head-Change                         Max.-Flux-Residual
  Residual-Control   Outer-Iter.   Inner-Iter.     Column Row Layer    Maximum-Head-Change  Column Row Layer    Maximum-Flux-Residual          L2-NORM 
          0                11           2             4    6     1      -0.5719175930E-02       4    6    1        -0.3206394221E+00      0.3207353361E+00
          0                12           2             4    6     1      -0.3395233517E-02       4    6    1        -0.1903563118E+00      0.1903998739E+00
          0                13           2             4    6     1      -0.2015540159E-02       4    6    1        -0.1130041360E+00      0.1130263378E+00
          0                14           2             4    6     1      -0.1196477525E-02       4    6    1        -0.6708232737E-01      0.6709445819E-01
          0                15           2             4    6     1      -0.7102509424E-03       4    6    1        -0.3982114661E-01      0.3982803860E-01
          0                16           2             4    6     1      -0.4216137455E-03       4    6    1        -0.2363817159E-01      0.2364217026E-01
          0                17           2             4    6     1      -0.2502730760E-03       4    6    1        -0.1403168486E-01      0.1403403061E-01
          0                18           2             4    6     1      -0.1485628831E-03       4    6    1        -0.8329180453E-02      0.8330564445E-02
          0                19           1             4    6     1      -0.8818678701E-04       4    6    1        -0.4944149304E-02      0.4944968271E-02

    ------------------------------------------------
       NWT REQUIRED           19 OUTER ITERATIONS 
       AND A TOTAL OF         37 INNER ITERATIONS.
    ------------------------------------------------

 NO OUTPUT CONTROL FOR STRESS PERIOD   10   TIME STEP    9
 
 SOLVING FOR HEAD 
                                                   Max.-Head-Change                         Max.-Flux-Residual
  Residual-Control   Outer-Iter.   Inner-Iter.     Column Row Layer    Maximum-Head-Change  Column Row Layer    Maximum-Flux-Residual          L2-NORM 
          0                 1           2             4    6     1       0.2499038177E+00       4    6    1         0.1356938540E+02      0.2001900577E+02
          0                 2           2             4    6     1       0.3609786874E-01       4    6    1         0.2006845602E+01      0.4089686964E+01
          0                 3           2             4    6     1       0.1685976844E-01       4    6    1         0.9087425455E+00      0.1391700535E+01
          0                 4           2             4    6     1       0.4812393205E-02       4    6    1         0.2621027925E+00      0.2815223266E+00
          0                 5           2             4    6     1       0.1374874136E-02       4    6    1         0.7463748181E-01      0.7870492380E-01
          0                 6           2             4    6     1       0.3931926790E-03       4    6    1         0.2133227553E-01      0.2295309111E-01
          0                 7           2             4    6     1       0.1125751867E-03       4    6    1         0.6101399320E-02      0.6741070163E-02
          0                 8           1             4    6     1       0.3227262703E-04       4    6    1         0.1747148992E-02      0.1994984724E-02

    ------------------------------------------------
       NWT REQUIRED            8 OUTER ITERATIONS 
       AND A TOTAL OF         15 INNER ITERATIONS.
    ------------------------------------------------

 NO OUTPUT CONTROL FOR STRESS PERIOD   10   TIME STEP   10
 
 SOLVING FOR HEAD 
                                                   Max.-Head-Change                         Max.-Flux-Residual
  Residual-Control   Outer-Iter.   Inner-Iter.     Column Row Layer    Maximum-Head-Change  Column Row Layer    Maximum-Flux-Residual          L2-NORM 
          0                 1           2             4    5     1       0.9492055555E-01       4    5    1         0.5120181002E+01      0.1396849337E+02
          0                 2           2             4    7     1       0.2359451753E-01       4    7    1         0.1284377486E+01      0.1848827924E+01
          0                 3           2             4    7     1       0.6707702420E-02       4    7    1         0.3660850221E+00      0.3799130325E+00
          0                 4           2             4    7     1       0.1907626293E-02       4    7    1         0.1040122461E+00      0.1045734912E+00
          0                 5           1             4    7     1       0.5427118576E-03       4    7    1         0.2958439524E-01      0.2967539557E-01
          0                 6           1             4    7     1       0.1544549583E-03       4    7    1         0.8417449751E-02      0.8432375860E-02
          0                 7           1             4    7     1       0.4397348168E-04       4    7    1         0.2395816005E-02      0.2397812556E-02

    ------------------------------------------------
       NWT REQUIRED            7 OUTER ITERATIONS 
       AND A TOTAL OF         11 INNER ITERATIONS.
    ------------------------------------------------

 NO OUTPUT CONTROL FOR STRESS PERIOD   10   TIME STEP   11
 
 SOLVING FOR HEAD 
                                                   Max.-Head-Change                         Max.-Flux-Residual
  Residual-Control   Outer-Iter.   Inner-Iter.     Column Row Layer    Maximum-Head-Change  Column Row Layer    Maximum-Flux-Residual          L2-NORM 
          0                 1           2             4    5     1       0.9138357664E-01       4    5    1         0.4928006829E+01      0.1322513653E+02
          0                 2           2             4    7     1       0.2174938496E-01       4    7    1         0.1183850930E+01      0.1728501983E+01
          0                 3           2             4    7     1       0.6186088893E-02       4    7    1         0.3374750838E+00      0.3500244990E+00
          0                 4           1             4    7     1       0.1760119906E-02       4    7    1         0.9593672345E-01      0.9625525322E-01
          0                 5           1             4    7     1       0.5009851233E-03       4    7    1         0.2730015111E-01      0.2733923709E-01
          0                 6           1             4    7     1       0.1426473700E-03       4    7    1         0.7771230699E-02      0.7775912107E-02
          0                 7           1             4    7     1       0.4063112487E-04       4    7    1         0.2212936830E-02      0.2213233323E-02

    ------------------------------------------------
       NWT REQUIRED            7 OUTER ITERATIONS 
       AND A TOTAL OF         10 INNER ITERATIONS.
    ------------------------------------------------

 NO OUTPUT CONTROL FOR STRESS PERIOD   10   TIME STEP   12
 
 SOLVING FOR HEAD 
                                                   Max.-Head-Change                         Max.-Flux-Residual
  Residual-Control   Outer-Iter.   Inner-Iter.     Column Row Layer    Maximum-Head-Change  Column Row Layer    Maximum-Flux-Residual          L2-NORM 
          0                 1           2             4    5     1       0.8801976711E-01       4    5    1         0.4745282637E+01      0.1254202870E+02
          0                 2           2             4    7     1       0.2007728849E-01       4    7    1         0.1092762696E+01      0.1619794616E+01
          0                 3           2             4    7     1       0.5713352330E-02       4    7    1         0.3115471746E+00      0.3231529284E+00
          0                 4           1             4    7     1       0.1626423843E-02       4    7    1         0.8861773438E-01      0.8877834050E-01
          0                 5           1             4    7     1       0.4631619426E-03       4    7    1         0.2522972527E-01      0.2523930080E-01
          0                 6           1             4    7     1       0.1319450431E-03       4    7    1         0.7185533724E-02      0.7185884277E-02
          0                 7           1             4    7     1       0.3759802162E-04       4    7    1         0.2046984604E-02      0.2047149806E-02

    ------------------------------------------------
       NWT REQUIRED            7 OUTER ITERATIONS 
       AND A TOTAL OF         10 INNER ITERATIONS.
    ------------------------------------------------

 NO OUTPUT CONTROL FOR STRESS PERIOD   10   TIME STEP   13
 
 SOLVING FOR HEAD 
                                                   Max.-Head-Change                         Max.-Flux-Residual
  Residual-Control   Outer-Iter.   Inner-Iter.     Column Row Layer    Maximum-Head-Change  Column Row Layer    Maximum-Flux-Residual          L2-NORM 
          0                 1           2             4    5     1       0.8481912845E-01       4    5    1         0.4571458053E+01      0.1191364176E+02
          0                 2           2             4    6     1      -0.1107919327E-01       4    6    1        -0.5998197474E+00      0.1543239687E+01
          0                 3           2             4    7     1       0.1190449817E-01       4    7    1         0.6278824169E+00      0.1310636830E+01
          0                 4           2             4    7     1       0.3802891643E-02       4    7    1         0.2061899750E+00      0.2456933999E+00
          0                 5           2             5    8     1      -0.9394487827E-03       5    6    1        -0.5316912520E-01      0.1072470176E+00
          0                 6           2             4    7     1       0.1403909856E-02       5    6    1         0.7466172699E-01      0.1804315396E+00
          0                 7           2             4    6     1       0.4097124275E-03       4    6    1         0.2399058315E-01      0.3249330172E-01
          0                 8           2             4    6     1       0.1417389960E-03       4    6    1         0.8311671238E-02      0.1042501381E-01
          0                 9           1             4    6     1       0.4892073129E-04       4    6    1         0.2873454643E-02      0.3403190692E-02

    ------------------------------------------------
       NWT REQUIRED            9 OUTER ITERATIONS 
       AND A TOTAL OF         17 INNER ITERATIONS.
    ------------------------------------------------

 NO OUTPUT CONTROL FOR STRESS PERIOD   10   TIME STEP   14
 
 SOLVING FOR HEAD 
                                                   Max.-Head-Change                         Max.-Flux-Residual
  Residual-Control   Outer-Iter.   Inner-Iter.     Column Row Layer    Maximum-Head-Change  Column Row Layer    Maximum-Flux-Residual          L2-NORM 
          0                 1           2             4    5     1       0.8177151608E-01       4    5    1         0.4405980160E+01      0.1133246963E+02
          0                 2           2             4    8     1      -0.1891353142E+01       4    6    1        -0.1000230798E+03      0.2443565127E+03
          0                 3           2             4    8     1       0.1829542118E+00       5    8    1         0.1005157013E+02      0.2204377593E+02
          0                 4           2             4    8     1      -0.1245891135E-01       5    8    1        -0.7037090890E+00      0.1528323453E+01
          0                 5           2             4    8     1       0.4957501365E-03       4    8    1         0.2880696292E-01      0.6236952767E-01
          0                 6           1             4    8     1      -0.6112807421E-05       4    8    1        -0.3659975498E-03      0.8055917069E-03

    ------------------------------------------------
       NWT REQUIRED            6 OUTER ITERATIONS 
       AND A TOTAL OF         11 INNER ITERATIONS.
    ------------------------------------------------

 NO OUTPUT CONTROL FOR STRESS PERIOD   10   TIME STEP   15
 
 SOLVING FOR HEAD 
                                                   Max.-Head-Change                         Max.-Flux-Residual
  Residual-Control   Outer-Iter.   Inner-Iter.     Column Row Layer    Maximum-Head-Change  Column Row Layer    Maximum-Flux-Residual          L2-NORM 
          0                 1           2             4    5     1       0.5266891129E-01       4    5    1         0.2836088027E+01      0.7445969673E+01
          0                 2           2             4    7     1      -0.3909632504E-01       5    8    1        -0.2129417214E+01      0.4936708851E+01
          0                 3           2             5    6     1       0.9805681779E-02       5    6    1         0.5402018559E+00      0.1229991027E+01
          0                 4           2             5    6     1      -0.6677316773E-03       5    6    1        -0.3828776123E-01      0.5918979280E-01
          0                 5           1             5    6     1       0.2656966442E-04       5    6    1         0.1584757463E-02      0.1690419544E-02

    ------------------------------------------------
       NWT REQUIRED            5 OUTER ITERATIONS 
       AND A TOTAL OF          9 INNER ITERATIONS.
    ------------------------------------------------

 NO OUTPUT CONTROL FOR STRESS PERIOD   10   TIME STEP   16
 
 SOLVING FOR HEAD 
                                                   Max.-Head-Change                         Max.-Flux-Residual
  Residual-Control   Outer-Iter.   Inner-Iter.     Column Row Layer    Maximum-Head-Change  Column Row Layer    Maximum-Flux-Residual          L2-NORM 
          0                 1           2             4    5     1       0.5045623109E-01       4    5    1         0.2715345576E+01      0.7246174024E+01
          0                 2           2             4    5     1      -0.4908088675E-02       4    5    1        -0.2715396167E+00      0.7265911726E+00
          0                 3           2             4    5     1       0.3342219272E-03       4    5    1         0.1900773352E-01      0.5085995717E-01
          0                 4           1             4    5     1      -0.1329903072E-04       4    5    1        -0.7774176138E-03      0.2080070579E-02

    ------------------------------------------------
       NWT REQUIRED            4 OUTER ITERATIONS 
       AND A TOTAL OF          7 INNER ITERATIONS.
    ------------------------------------------------

 NO OUTPUT CONTROL FOR STRESS PERIOD   10   TIME STEP   17
 
 SOLVING FOR HEAD 
                                                   Max.-Head-Change                         Max.-Flux-Residual
  Residual-Control   Outer-Iter.   Inner-Iter.     Column Row Layer    Maximum-Head-Change  Column Row Layer    Maximum-Flux-Residual          L2-NORM 
          0                 1           2             4    5     1       0.4873738397E-01       4    5    1         0.2621597408E+01      0.7076308494E+01
          0                 2           2             4    5     1      -0.4740963728E-02       4    5    1        -0.2621643889E+00      0.7076167043E+00
          0                 3           2             4    5     1       0.3228413974E-03       4    5    1         0.1835147124E-01      0.4953221280E-01
          0                 4           1             4    5     1      -0.1284618863E-04       4    5    1        -0.7505764222E-03      0.2025775200E-02

    ------------------------------------------------
       NWT REQUIRED            4 OUTER ITERATIONS 
       AND A TOTAL OF          7 INNER ITERATIONS.
    ------------------------------------------------

 NO OUTPUT CONTROL FOR STRESS PERIOD   10   TIME STEP   18
 
 SOLVING FOR HEAD 
                                                   Max.-Head-Change                         Max.-Flux-Residual
  Residual-Control   Outer-Iter.   Inner-Iter.     Column Row Layer    Maximum-Head-Change  Column Row Layer    Maximum-Flux-Residual          L2-NORM 
          0                 1           2             4    5     1       0.4709937278E-01       4    5    1         0.2532283602E+01      0.6918285419E+01
          0                 2           2             4    5     1      -0.4581546487E-02       4    5    1        -0.2532326338E+00      0.6918240471E+00
          0                 3           2             4    5     1       0.3119857266E-03       4    5    1         0.1772625159E-01      0.4842690184E-01
          0                 4           1             4    5     1      -0.1241419902E-04       4    5    1        -0.7250048886E-03      0.1980477534E-02

    ------------------------------------------------
       NWT REQUIRED            4 OUTER ITERATIONS 
       AND A TOTAL OF          7 INNER ITERATIONS.
    ------------------------------------------------

 NO OUTPUT CONTROL FOR STRESS PERIOD   10   TIME STEP   19
 
 SOLVING FOR HEAD 
                                                   Max.-Head-Change                         Max.-Flux-Residual
  Residual-Control   Outer-Iter.   Inner-Iter.     Column Row Layer    Maximum-Head-Change  Column Row Layer    Maximum-Flux-Residual          L2-NORM 
          0                 1           2             4    5     1       0.4553833613E-01       4    5    1         0.2447176602E+01      0.6771061326E+01
          0                 2           2             5    8     1      -0.1401518509E-01       5    8    1        -0.7715640706E+00      0.1745074666E+01
          0                 3           2             4    7     1       0.1012765239E-01       5    8    1         0.5606558141E+00      0.1361107665E+01
          0                 4           1             4    7     1      -0.4911100328E-04       5    8    1        -0.2854300814E-02      0.6598496542E-02

    ------------------------------------------------
       NWT REQUIRED            4 OUTER ITERATIONS 
       AND A TOTAL OF          7 INNER ITERATIONS.
    ------------------------------------------------

 NO OUTPUT CONTROL FOR STRESS PERIOD   10   TIME STEP   20
 
 SOLVING FOR HEAD 
                                                   Max.-Head-Change                         Max.-Flux-Residual
  Residual-Control   Outer-Iter.   Inner-Iter.     Column Row Layer    Maximum-Head-Change  Column Row Layer    Maximum-Flux-Residual          L2-NORM 
          0                 1           2             4    5     1       0.4404570394E-01       4    5    1         0.2365812254E+01      0.6634047292E+01
          0                 2           2             4    7     1      -0.1936152711E-01       5    8    1        -0.1061240370E+01      0.2440202140E+01
          0                 3           2             4    7     1       0.1592162214E-01       5    8    1         0.8803014772E+00      0.2147816741E+01
          0                 4           2             4    7     1      -0.2355552458E+00       5    8    1        -0.1336381428E+02      0.3273384242E+02
          0                 5           2             4    7     1       0.1161895115E-01       5    8    1         0.6775301145E+00      0.1664086916E+01
          0                 6           2             4    7     1       0.1708802974E-03       5    8    1         0.9964455860E-02      0.2448524651E-01
          0                 7           1             4    7     1       0.2511467059E-05       5    8    1         0.1464484371E-03      0.3603111900E-03

    ------------------------------------------------
       NWT REQUIRED            7 OUTER ITERATIONS 
       AND A TOTAL OF         13 INNER ITERATIONS.
    ------------------------------------------------

 NO OUTPUT CONTROL FOR STRESS PERIOD   10   TIME STEP   21
 
 SOLVING FOR HEAD 
                                                   Max.-Head-Change                         Max.-Flux-Residual
  Residual-Control   Outer-Iter.   Inner-Iter.     Column Row Layer    Maximum-Head-Change  Column Row Layer    Maximum-Flux-Residual          L2-NORM 
          0                 1           2             5    8     1       0.4679077134E-01       5    8    1         0.2511805869E+01      0.6478335823E+01
          0                 2           2             5    8     1      -0.4551544636E-02       5    8    1        -0.2511861580E+00      0.6500853435E+00
          0                 3           2             5    8     1       0.3099425501E-03       5    8    1         0.1758298604E-01      0.4550474246E-01
          0                 4           1             5    8     1      -0.1233290707E-04       5    8    1        -0.7191453587E-03      0.1861061626E-02

    ------------------------------------------------
       NWT REQUIRED            4 OUTER ITERATIONS 
       AND A TOTAL OF          7 INNER ITERATIONS.
    ------------------------------------------------

 NO OUTPUT CONTROL FOR STRESS PERIOD   10   TIME STEP   22
 
 SOLVING FOR HEAD 
                                                   Max.-Head-Change                         Max.-Flux-Residual
  Residual-Control   Outer-Iter.   Inner-Iter.     Column Row Layer    Maximum-Head-Change  Column Row Layer    Maximum-Flux-Residual          L2-NORM 
          0                 1           2             5    8     1       0.4535248250E-01       5    8    1         0.2431478068E+01      0.6372543013E+01
          0                 2           2             5    8     1      -0.4411632385E-02       5    8    1        -0.2431529502E+00      0.6372473944E+00
          0                 3           2             5    8     1       0.3004151034E-03       5    8    1         0.1702066530E-01      0.4460655893E-01
          0                 4           1             5    8     1      -0.1195380132E-04       5    8    1        -0.6961464219E-03      0.1824378167E-02

    ------------------------------------------------
       NWT REQUIRED            4 OUTER ITERATIONS 
       AND A TOTAL OF          7 INNER ITERATIONS.
    ------------------------------------------------

 NO OUTPUT CONTROL FOR STRESS PERIOD   10   TIME STEP   23
 
 SOLVING FOR HEAD 
                                                   Max.-Head-Change                         Max.-Flux-Residual
  Residual-Control   Outer-Iter.   Inner-Iter.     Column Row Layer    Maximum-Head-Change  Column Row Layer    Maximum-Flux-Residual          L2-NORM 
          0                 1           2             5    8     1       0.4401246710E-01       5    8    1         0.2356733721E+01      0.6272846128E+01
          0                 2           2             5    8     1      -0.4281279969E-02       5    8    1        -0.2356781244E+00      0.6272791879E+00
          0                 3           2             5    8     1       0.2915386402E-03       5    8    1         0.1649743098E-01      0.4390891826E-01
          0                 4           1             5    8     1      -0.1160059779E-04       5    8    1        -0.6747460729E-03      0.1795828420E-02

    ------------------------------------------------
       NWT REQUIRED            4 OUTER ITERATIONS 
       AND A TOTAL OF          7 INNER ITERATIONS.
    ------------------------------------------------

 NO OUTPUT CONTROL FOR STRESS PERIOD   10   TIME STEP   24
 
 SOLVING FOR HEAD 
                                                   Max.-Head-Change                         Max.-Flux-Residual
  Residual-Control   Outer-Iter.   Inner-Iter.     Column Row Layer    Maximum-Head-Change  Column Row Layer    Maximum-Flux-Residual          L2-NORM 
          0                 1           2             5    8     1       0.4276259869E-01       5    8    1         0.2287108015E+01      0.6178781353E+01
          0                 2           2             4    7     1      -0.1865988302E+01       5    8    1        -0.1002287152E+03      0.2453056760E+03
          0                 3           2             4    7     1       0.1260901828E+00       5    8    1         0.7015044751E+01      0.1715048102E+02
          0                 4           2             4    7     1      -0.5017331347E-02       5    8    1        -0.2869202251E+00      0.7036686210E+00
          0                 5           1             4    7     1       0.6186573256E-04       5    8    1         0.3636156489E-02      0.9202587231E-02

    ------------------------------------------------
       NWT REQUIRED            5 OUTER ITERATIONS 
       AND A TOTAL OF          9 INNER ITERATIONS.
    ------------------------------------------------

 NO OUTPUT CONTROL FOR STRESS PERIOD   10   TIME STEP   25
 
 SOLVING FOR HEAD 
                                                   Max.-Head-Change                         Max.-Flux-Residual
  Residual-Control   Outer-Iter.   Inner-Iter.     Column Row Layer    Maximum-Head-Change  Column Row Layer    Maximum-Flux-Residual          L2-NORM 
          0                 1           2             5    8     1       0.9508963406E-01       5    8    1         0.5172284998E+01      0.8934418121E+01
          0                 2           2             5    8     1      -0.4331262706E-01       5    8    1        -0.2392239548E+01      0.5433964756E+01
          0                 3           2             5    8     1       0.9174160453E-02       5    8    1         0.5196811669E+00      0.1243062709E+01
          0                 4           2             5    8     1      -0.3650489246E-03       5    8    1        -0.2125085476E-01      0.5097898963E-01
          0                 5           1             5    8     1       0.4501210772E-05       5    8    1         0.2690308568E-03      0.6720255025E-03

    ------------------------------------------------
       NWT REQUIRED            5 OUTER ITERATIONS 
       AND A TOTAL OF          9 INNER ITERATIONS.
    ------------------------------------------------

 NO OUTPUT CONTROL FOR STRESS PERIOD   10   TIME STEP   26
 
 SOLVING FOR HEAD 
                                                   Max.-Head-Change                         Max.-Flux-Residual
  Residual-Control   Outer-Iter.   Inner-Iter.     Column Row Layer    Maximum-Head-Change  Column Row Layer    Maximum-Flux-Residual          L2-NORM 
          0                 1           2             5    8     1       0.9176799127E-01       5    8    1         0.4986203065E+01      0.8785159113E+01
          0                 2           2             5    8     1      -0.8926671386E-02       5    8    1        -0.4986306648E+00      0.8802416917E+00
          0                 3           2             5    8     1       0.6078717788E-03       5    8    1         0.3490406360E-01      0.6161592248E-01
          0                 4           1             5    8     1      -0.2418779364E-04       5    8    1        -0.1427578650E-02      0.2520034156E-02

    ------------------------------------------------
       NWT REQUIRED            4 OUTER ITERATIONS 
       AND A TOTAL OF          7 INNER ITERATIONS.
    ------------------------------------------------

 NO OUTPUT CONTROL FOR STRESS PERIOD   10   TIME STEP   27
 
 SOLVING FOR HEAD 
                                                   Max.-Head-Change                         Max.-Flux-Residual
  Residual-Control   Outer-Iter.   Inner-Iter.     Column Row Layer    Maximum-Head-Change  Column Row Layer    Maximum-Flux-Residual          L2-NORM 
          0                 1           2             5    8     1       0.8787011494E-01       5    8    1         0.4768681615E+01      0.8580110128E+01
          0                 2           2             5    8     1      -0.8547504427E-02       5    8    1        -0.4768778211E+00      0.8580071306E+00
          0                 3           2             5    8     1       0.5820520131E-03       5    8    1         0.3338137059E-01      0.6005989194E-01
          0                 4           1             5    8     1      -0.2316040069E-04       5    8    1        -0.1365300386E-02      0.2456408873E-02

    ------------------------------------------------
       NWT REQUIRED            4 OUTER ITERATIONS 
       AND A TOTAL OF          7 INNER ITERATIONS.
    ------------------------------------------------

 NO OUTPUT CONTROL FOR STRESS PERIOD   10   TIME STEP   28
 
 SOLVING FOR HEAD 
                                                   Max.-Head-Change                         Max.-Flux-Residual
  Residual-Control   Outer-Iter.   Inner-Iter.     Column Row Layer    Maximum-Head-Change  Column Row Layer    Maximum-Flux-Residual          L2-NORM 
          0                 1           2             5    8     1       0.8423733888E-01       5    8    1         0.4566132755E+01      0.8390757814E+01
          0                 2           2             5    8     1      -0.8194124613E-02       5    8    1        -0.4566222507E+00      0.8390747643E+00
          0                 3           2             5    8     1       0.5579882513E-03       5    8    1         0.3196348642E-01      0.5873471904E-01
          0                 4           1             5    8     1      -0.2220288064E-04       5    8    1        -0.1307308814E-02      0.2402253688E-02

    ------------------------------------------------
       NWT REQUIRED            4 OUTER ITERATIONS 
       AND A TOTAL OF          7 INNER ITERATIONS.
    ------------------------------------------------

 NO OUTPUT CONTROL FOR STRESS PERIOD   10   TIME STEP   29
 
 SOLVING FOR HEAD 
                                                   Max.-Head-Change                         Max.-Flux-Residual
  Residual-Control   Outer-Iter.   Inner-Iter.     Column Row Layer    Maximum-Head-Change  Column Row Layer    Maximum-Flux-Residual          L2-NORM 
          0                 1           2             5    8     1       0.8084847487E-01       5    8    1         0.4377352134E+01      0.8215423330E+01
          0                 2           2             5    8     1      -0.1777067853E-01       5    8    1        -0.9830384927E+00      0.2118645192E+01
          0                 3           2             4    7     1       0.1018819900E-01       5    8    1         0.5754589696E+00      0.1392687092E+01
          0                 4           1             5    8     1      -0.5924682617E-04       5    8    1        -0.3455974666E-02      0.7715880712E-02

    ------------------------------------------------
       NWT REQUIRED            4 OUTER ITERATIONS 
       AND A TOTAL OF          7 INNER ITERATIONS.
    ------------------------------------------------

 NO OUTPUT CONTROL FOR STRESS PERIOD   10   TIME STEP   30



 STREAM LISTING     PERIOD     10   STEP       30

 LAYER ROW COL. STREAM  RCH.  FLOW INTO     FLOW TO   FLOW OUT OF   OVRLND.     DIRECT     STREAM       STREAM     STREAM     STREAM   STREAMBED  STREAMBED
                SEG.NO.  NO.  STRM. RCH.    AQUIFER    STRM. RCH.    RUNOFF     PRECIP       ET          HEAD       DEPTH      WIDTH   CONDCTNC.   GRADIENT

   1    1    1     1     1    1.7625E+01  2.0521E-01   1.7420E+01  0.000E+00  0.000E+00  0.000E+00  1.09411E+03  1.059E+00  1.124E+01  5.056E-02  1.353E+00
   1    2    2     1     2    1.7420E+01  3.1649E-01   1.7103E+01  0.000E+00  0.000E+00  0.000E+00  1.08911E+03  1.054E+00  1.115E+01  7.807E-02  1.351E+00
   1    3    3     1     3    1.7103E+01  2.6863E-01   1.6835E+01  0.000E+00  0.000E+00  0.000E+00  1.08347E+03  1.049E+00  1.106E+01  6.635E-02  1.350E+00
   1    3    4     1     4    1.6835E+01  2.4632E-01   1.6588E+01  0.000E+00  0.000E+00  0.000E+00  1.07845E+03  1.044E+00  1.097E+01  6.091E-02  1.348E+00
   1    4    5     2     1    1.4588E+01  3.0175E-01   1.4286E+01  0.000E+00  0.000E+00  0.000E+00  1.07280E+03  8.686E-01  1.200E+01  7.800E-02  1.290E+00
   1    5    6     2     2    1.4286E+01  2.3154E-01   1.4055E+01  0.000E+00  0.000E+00  0.000E+00  1.06737E+03  8.590E-01  1.200E+01  6.000E-02  1.286E+00
   1    6    6     2     3    1.4055E+01  2.3103E-01   1.3824E+01  0.000E+00  0.000E+00  0.000E+00  1.06264E+03  8.505E-01  1.200E+01  6.000E-02  1.284E+00
   1    7    6     2     4    1.3824E+01  2.3052E-01   1.3593E+01  0.000E+00  0.000E+00  0.000E+00  1.05792E+03  8.421E-01  1.200E+01  6.000E-02  1.281E+00
   1    8    6     2     5    1.3593E+01  2.3001E-01   1.3363E+01  0.000E+00  0.000E+00  0.000E+00  1.05319E+03  8.335E-01  1.200E+01  6.000E-02  1.278E+00
   1    3    5     3     1    2.0000E+00  2.8252E-01   1.7175E+00  0.000E+00  0.000E+00  0.000E+00  1.07555E+03  1.909E+00  9.636E+00  7.227E-02  1.955E+00
   1    3    6     3     2    1.7175E+00  2.4905E-01   1.4684E+00  0.000E+00  0.000E+00  0.000E+00  1.07264E+03  1.727E+00  8.909E+00  6.682E-02  1.864E+00
   1    3    7     3     3    1.4684E+00  1.9718E-01   1.2712E+00  0.000E+00  0.000E+00  0.000E+00  1.06987E+03  1.555E+00  8.218E+00  5.547E-02  1.777E+00
   1    4    8     3     4    1.2712E+00  2.2567E-01   1.0456E+00  0.000E+00  0.000E+00  0.000E+00  1.06682E+03  1.364E+00  7.455E+00  6.709E-02  1.682E+00
   1    5    8     3     5    1.0456E+00  1.5790E-01   8.8768E-01  0.000E+00  0.000E+00  0.000E+00  1.06362E+03  1.164E+00  6.655E+00  4.991E-02  1.582E+00
   1    6    8     3     6    8.8768E-01  5.5980E-02   8.3170E-01  0.000E+00  0.000E+00  0.000E+00  1.06158E+03  1.036E+00  6.145E+00  1.844E-02  1.518E+00
   1    5   10     4     1    1.0000E+01  9.0919E-02   9.9091E+00  0.000E+00  0.000E+00  0.000E+00  1.07836E+03  6.368E-01  1.000E+01  2.500E-02  1.212E+00
   1    5    9     4     2    9.9091E+00  1.8158E-01   9.7275E+00  0.000E+00  0.000E+00  0.000E+00  1.07154E+03  6.315E-01  1.000E+01  5.000E-02  1.211E+00
   1    6    8     4     3    9.7275E+00  1.2689E-01   9.6006E+00  0.000E+00  0.000E+00  0.000E+00  1.06381E+03  6.256E-01  1.000E+01  3.500E-02  1.209E+00
   1    6    8     5     1    1.0432E+01  2.2686E-01   1.0205E+01  0.000E+00  0.000E+00  0.000E+00  1.05868E+03  6.790E-01  1.542E+01  6.166E-02  1.226E+00
   1    7    7     5     2    1.0205E+01  2.7894E-01   9.9265E+00  0.000E+00  0.000E+00  0.000E+00  1.05417E+03  6.732E-01  1.519E+01  7.594E-02  1.224E+00
   1    8    7     5     3    9.9265E+00  1.9221E-01   9.7343E+00  0.000E+00  0.000E+00  0.000E+00  1.04992E+03  6.676E-01  1.497E+01  5.241E-02  1.223E+00
   1    8    6     5     4    9.7343E+00  1.3577E-01   9.5985E+00  0.000E+00  0.000E+00  0.000E+00  1.04691E+03  6.637E-01  1.482E+01  3.706E-02  1.221E+00
   1    9    6     6     1    1.6075E+01  2.3620E-01   1.5839E+01  0.000E+00  0.000E+00  0.000E+00  1.04366E+03  9.366E-01  1.200E+01  6.000E-02  1.312E+00
   1   10    7     6     2    1.5839E+01  2.3570E-01   1.5603E+01  0.000E+00  0.000E+00  0.000E+00  1.03911E+03  9.283E-01  1.200E+01  6.000E-02  1.309E+00
   1   11    7     6     3    1.5603E+01  2.3520E-01   1.5368E+01  0.000E+00  0.000E+00  0.000E+00  1.03456E+03  9.200E-01  1.200E+01  6.000E-02  1.307E+00
   1   12    7     6     4    1.5368E+01  2.3470E-01   1.5133E+01  0.000E+00  0.000E+00  0.000E+00  1.03000E+03  9.117E-01  1.200E+01  6.000E-02  1.304E+00
   1   13    7     6     5    1.5133E+01  8.5156E-04   1.5132E+01  0.000E+00  0.000E+00  0.000E+00  1.02682E+03  9.075E-01  1.200E+01  2.400E-02  1.183E-02
   1   14    9     7     1    1.5000E+02  1.3689E+00   1.4863E+02  0.000E+00  0.000E+00  0.000E+00  1.03987E+03  2.288E+00  5.529E+01  5.593E-01  8.159E-01
   1   13    8     7     2    1.4863E+02  1.9255E+00   1.4671E+02  0.000E+00  0.000E+00  0.000E+00  1.03478E+03  2.279E+00  5.525E+01  6.148E-01  1.044E+00
   1   13    7     7     3    1.4671E+02  1.6236E+00   1.4508E+02  0.000E+00  0.000E+00  0.000E+00  1.02969E+03  2.269E+00  5.521E+01  5.584E-01  9.692E-01
   1   13    6     8     1    1.6021E+02  1.0273E+00   1.5919E+02  0.000E+00  0.000E+00  0.000E+00  1.02476E+03  2.885E+00  4.183E+01  4.262E-01  8.034E-01
   1   13    5     8     2    1.5919E+02  2.9780E-01   1.5889E+02  0.000E+00  0.000E+00  0.000E+00  1.01851E+03  2.880E+00  4.176E+01  4.256E-01  2.333E-01
   1   13    4     8     3    1.5889E+02 -1.9995E+00   1.6089E+02  0.000E+00  0.000E+00  0.000E+00  1.01226E+03  2.886E+00  4.184E+01  4.264E+00 -1.563E-01
   1   13    3     8     4    1.6089E+02 -3.4855E+00   1.6437E+02  0.000E+00  0.000E+00  0.000E+00  1.00603E+03  2.904E+00  4.211E+01  4.291E+00 -2.707E-01
   1   13    2     8     5    1.6437E+02 -2.5789E+00   1.6695E+02  0.000E+00  0.000E+00  0.000E+00  9.99799E+02  2.924E+00  4.240E+01  4.321E+00 -1.989E-01
   1   13    1     8     6    1.6695E+02 -1.9880E+00   1.6894E+02  0.000E+00  0.000E+00  0.000E+00  9.94815E+02  2.940E+00  4.262E+01  2.606E+00 -2.543E-01
   1    8    6     9     1    6.8869E+00  0.0000E+00   6.8869E+00  0.000E+00  0.000E+00  0.000E+00  1.08054E+03  1.794E+00  4.000E+00  0.000E+00  1.598E+00
   1    8    5     9     2    6.8869E+00  0.0000E+00   6.8869E+00  0.000E+00  0.000E+00  0.000E+00  1.08004E+03  1.794E+00  4.000E+00  0.000E+00  1.598E+00





UNSATURATED ZONE PACKAGE VOLUMETRIC BUDGET FOR  TIME STEP    30 STRESS PERIOD   10
  ------------------------------------------------------------------------------



     CUMULATIVE VOLUMES      L**3       RATES FOR THIS TIME STEP      L**3/T
     ------------------                 ------------------------

           IN:                                      IN:
           ---                                      ---
        INFILTRATION =  3313159532.6508          INFILTRATION =           7.7345

          OUT:                                     OUT:
          ----                                     ----
              UZF ET =   424454147.4034                UZF ET =          11.6326
        UZF RECHARGE =  2178077682.1094          UZF RECHARGE =       0.0000E+00

            IN - OUT =   710627703.1380              IN - OUT =          -3.8981

          STORAGE:                                 STORAGE:
          --------                                 --------
      STORAGE CHANGE =   710828283.3992        STORAGE CHANGE =          -3.8981

 PERCENT DISCREPANCY IS DIFFERENCE BETWEEN IN-OUT MINUS CHANGE IN STORAGE
 DIVIDED BY THE AVERAGE OF IN AND OUT TIMES 100

 PERCENT DISCREPANCY =          -0.00     PERCENT DISCREPANCY =          -0.00






1
  VOLUMETRIC BUDGET FOR AGRICULTURAL FIELDS AT  END OF TIME STEP   30, STRESS PERIOD  10
  ------------------------------------------------------------------------------

     CUMULATIVE VOLUMES      L**3       RATES FOR THIS TIME STEP      L**3/T
     ------------------                 ------------------------

           IN:                                      IN:
           ---                                      ---
               AG WELLS  =  3104902144.0000                 AG WELLS  =           0.1114
      DIVERSION SEGMENTS =   188148784.0000        DIVERSION SEGMENTS =           6.8869
           GW IRRIGATION =           0.0000             GW IRRIGATION =           0.0000
           SW IRRIGATION =           0.0000             SW IRRIGATION =           0.0000
        SYSTEM LOSSES GW =           0.0000          SYSTEM LOSSES GW =           0.0000
        SYSTEM LOSSES SW =           0.0000          SYSTEM LOSSES SW =           0.0000

                TOTAL IN =  3293050880.0000                  TOTAL IN =           6.9983

          OUT:                                     OUT:
          ----                                     ----
               AG WELLS  =           0.0000                 AG WELLS  =           0.0000
      DIVERSION SEGMENTS =           0.0000        DIVERSION SEGMENTS =           0.0000
           GW IRRIGATION =  3104902144.0000             GW IRRIGATION =           0.1114
           SW IRRIGATION =   188152464.0000             SW IRRIGATION =           6.8870
        SYSTEM LOSSES GW =           0.0000          SYSTEM LOSSES GW =           0.0000
        SYSTEM LOSSES SW =           0.0000          SYSTEM LOSSES SW =           0.0000

               TOTAL OUT =  3293054720.0000                 TOTAL OUT =           6.9984

                IN - OUT =       -3840.0000                  IN - OUT =      -1.3781E-04

     PERCENT DISCREPANCY =          -0.00         PERCENT DISCREPANCY =          -0.00



1
  VOLUMETRIC BUDGET FOR ENTIRE MODEL AT END OF TIME STEP   30, STRESS PERIOD  10
  ------------------------------------------------------------------------------

     CUMULATIVE VOLUMES      L**3       RATES FOR THIS TIME STEP      L**3/T
     ------------------                 ------------------------

           IN:                                      IN:
           ---                                      ---
             STORAGE     =  3214052608.0000               STORAGE     =          18.7048
       CONSTANT HEAD     =           0.0000         CONSTANT HEAD     =           0.0000
     HEAD DEP BOUNDS     =     6839621.5000       HEAD DEP BOUNDS     =           0.2880
      STREAM LEAKAGE     =   282177216.0000        STREAM LEAKAGE     =          11.8487
        UZF RECHARGE     =  2178076928.0000          UZF RECHARGE     =           0.0000
               GW ET     =           0.0000                 GW ET     =           0.0000
     SURFACE LEAKAGE     =           0.0000       SURFACE LEAKAGE     =           0.0000
           AG WELLS      =           0.0000             AG WELLS      =           0.0000

                TOTAL IN =  5681146368.0000                  TOTAL IN =          30.8415

          OUT:                                     OUT:
          ----                                     ----
             STORAGE     =  2325940736.0000               STORAGE     =          20.3899
       CONSTANT HEAD     =           0.0000         CONSTANT HEAD     =           0.0000
     HEAD DEP BOUNDS     =     6847095.0000       HEAD DEP BOUNDS     =           0.2879
      STREAM LEAKAGE     =   243445456.0000        STREAM LEAKAGE     =          10.0519
        UZF RECHARGE     =           0.0000          UZF RECHARGE     =           0.0000
               GW ET     =           0.0000                 GW ET     =           0.0000
     SURFACE LEAKAGE     =           0.0000       SURFACE LEAKAGE     =           0.0000
           AG WELLS      =  3104902144.0000             AG WELLS      =           0.1114

               TOTAL OUT =  5681135616.0000                 TOTAL OUT =          30.8412

                IN - OUT =       10752.0000                  IN - OUT =       3.1281E-04

     PERCENT DISCREPANCY =           0.00         PERCENT DISCREPANCY =           0.00






         TIME SUMMARY AT END OF TIME STEP   30 IN STRESS PERIOD   10
                    SECONDS     MINUTES      HOURS       DAYS        YEARS
                    -----------------------------------------------------------
   TIME STEP LENGTH  87667.      1461.1      24.352      1.0147     2.77799E-03
 STRESS PERIOD TIME 2.63000E+06  43833.      730.56      30.440     8.33397E-02
         TOTAL TIME 2.37564E+07 3.95940E+05  6599.0      274.96     0.75279    
1
1
                            STRESS PERIOD NO.   11, LENGTH =   2630000.    
                            -----------------------------------------------

                              NUMBER OF TIME STEPS =    30

                               MULTIPLIER FOR DELT =     1.000

                            INITIAL TIME STEP SIZE =   87666.66    

 REUSING NON-PARAMETER GHB CELLS FROM LAST STRESS PERIOD

      2 GHB CELLS

 REUSING STREAM SEGMENT DATA FROM LAST STRESS PERIOD



            AREAL INFILTRATION RATE
 READING ON UNIT   19 WITH FORMAT: (FREE)              

            1           2           3           4           5           6           7           8           9          10
 ........................................................................................................................
   1   1.0000E-10  2.0000E-10   0.000       0.000       0.000       0.000       0.000       0.000       0.000       0.000    
   2   2.0000E-10  1.0000E-10  2.0000E-10   0.000       0.000      8.0000E-10  8.0000E-10  5.0000E-10   0.000       0.000    
   3    0.000      5.0000E-10  1.0000E-10  1.0000E-10  8.0000E-10  8.0000E-10  5.0000E-10  5.0000E-10   0.000       0.000    
   4   8.0000E-10  5.0000E-10  1.0000E-10  1.0000E-10  1.0000E-10  1.0000E-10  1.0000E-10  1.0000E-10  2.0000E-10   0.000    
   5   8.0000E-10  5.0000E-10  1.0000E-10  1.0000E-10  1.0000E-10  1.0000E-10  1.0000E-10  1.0000E-10  1.0000E-10  1.0000E-10
   6   8.0000E-10  5.0000E-10  5.0000E-10  2.0000E-10  2.0000E-10  1.0000E-10  1.0000E-10  1.0000E-10  1.0000E-10  5.0000E-10
   7   8.0000E-10  5.0000E-10  5.0000E-10  2.0000E-10  2.0000E-10  1.0000E-10  1.0000E-10  2.0000E-10  2.0000E-10   0.000    
   8    0.000      5.0000E-10  5.0000E-10  2.0000E-10  2.0000E-10  1.0000E-10  1.0000E-10  2.0000E-10  5.0000E-10   0.000    
   9    0.000      5.0000E-10  5.0000E-10  2.0000E-10  2.0000E-10  1.0000E-10  1.0000E-10  2.0000E-10  5.0000E-10   0.000    
  10    0.000      5.0000E-10  5.0000E-10  2.0000E-10  2.0000E-10  1.0000E-10  1.0000E-10  2.0000E-10  5.0000E-10  8.0000E-10
  11    0.000      1.0000E-10  1.0000E-10  1.0000E-10  1.0000E-10  1.0000E-10  1.0000E-10  2.0000E-10  5.0000E-10   0.000    
  12   1.0000E-10  1.0000E-10  1.0000E-10  1.0000E-10  1.0000E-10  1.0000E-10  1.0000E-10  1.0000E-10  2.0000E-10   0.000    
  13   1.0000E-10  1.0000E-10  2.0000E-10  2.0000E-10  2.0000E-10  2.0000E-10  2.0000E-10  1.0000E-10  1.0000E-10   0.000    
  14    0.000      2.0000E-10  5.0000E-10  5.0000E-10  5.0000E-10  5.0000E-10  5.0000E-10  2.0000E-10  1.0000E-10   0.000    
  15    0.000       0.000      8.0000E-10  8.0000E-10  8.0000E-10  8.0000E-10   0.000       0.000       0.000       0.000    

                  ET RATE =  5.000000E-09

 USING ET EXTINCTION DEPTH FROM PREVIOUS STRESS PERIOD. CURRENT PERIOD IS:      11

 USING EXTINCTION WATER CONTENT FROM PREVIOUS STRESS PERIOD. CURRENT PERIOD IS:      11

 USING AIR ENTRY PRESSURE FROM PREVIOUS STRESS PERIOD. CURRENT PERIOD IS:      11

 USING ROOT PRESSURE HEAD FROM PREVIOUS STRESS PERIOD. CURRENT PERIOD IS:      11

 USING ROOT ACTIVITY FROM PREVIOUS STRESS PERIOD. CURRENT PERIOD IS:      11

 PROCESSING AG STRESS PERIOD DATA

 READING AG STRESS PERIOD DATA

 READING IRRIGATION SEGMENT

 READING IRRIGATION WELL

 READING SUPPLEMENTAL WELL

 END PROCESSING AG STRESS PERIOD DATA OPTIONS
 
 SOLVING FOR HEAD 
                                                   Max.-Head-Change                         Max.-Flux-Residual
  Residual-Control   Outer-Iter.   Inner-Iter.     Column Row Layer    Maximum-Head-Change  Column Row Layer    Maximum-Flux-Residual          L2-NORM 
          0                 1           2             5    8     1       0.7769294199E-01       5    8    1         0.4201801365E+01      0.8056419337E+01
          0                 2           2             5    8     1      -0.7557515491E-02       5    8    1        -0.4201878625E+00      0.8056456196E+00
          0                 3           2             5    8     1       0.5146377040E-03       5    8    1         0.2941308998E-01      0.5639514051E-01
          0                 4           1             5    8     1      -0.2047792081E-04       5    8    1        -0.1202997397E-02      0.2306558938E-02

    ------------------------------------------------
       NWT REQUIRED            4 OUTER ITERATIONS 
       AND A TOTAL OF          7 INNER ITERATIONS.
    ------------------------------------------------

 NO OUTPUT CONTROL FOR STRESS PERIOD   11   TIME STEP    1
 
 SOLVING FOR HEAD 
                                                   Max.-Head-Change                         Max.-Flux-Residual
  Residual-Control   Outer-Iter.   Inner-Iter.     Column Row Layer    Maximum-Head-Change  Column Row Layer    Maximum-Flux-Residual          L2-NORM 
          0                 1           2             5    8     1       0.7473285326E-01       5    8    1         0.4037282306E+01      0.7908588062E+01
          0                 2           2             5    8     1      -0.7269571411E-02       5    8    1        -0.4037353828E+00      0.7908615371E+00
          0                 3           2             5    8     1       0.4950298594E-03       5    8    1         0.2826142133E-01      0.5536016492E-01
          0                 4           1             5    8     1      -0.1969770601E-04       5    8    1        -0.1155894059E-02      0.2264204256E-02

    ------------------------------------------------
       NWT REQUIRED            4 OUTER ITERATIONS 
       AND A TOTAL OF          7 INNER ITERATIONS.
    ------------------------------------------------

 NO OUTPUT CONTROL FOR STRESS PERIOD   11   TIME STEP    2
 
 SOLVING FOR HEAD 
                                                   Max.-Head-Change                         Max.-Flux-Residual
  Residual-Control   Outer-Iter.   Inner-Iter.     Column Row Layer    Maximum-Head-Change  Column Row Layer    Maximum-Flux-Residual          L2-NORM 
          0                 1           2             5    8     1       0.7196423421E-01       5    8    1         0.3883472384E+01      0.7766446976E+01
          0                 2           2             5    8     1      -0.7000252851E-02       5    8    1        -0.3883538692E+00      0.7766472850E+00
          0                 3           2             5    8     1       0.4766903366E-03       5    8    1         0.2718471985E-01      0.5436519040E-01
          0                 4           1             5    8     1      -0.1896795913E-04       5    8    1        -0.1111856893E-02      0.2223543746E-02

    ------------------------------------------------
       NWT REQUIRED            4 OUTER ITERATIONS 
       AND A TOTAL OF          7 INNER ITERATIONS.
    ------------------------------------------------

 NO OUTPUT CONTROL FOR STRESS PERIOD   11   TIME STEP    3
 
 SOLVING FOR HEAD 
                                                   Max.-Head-Change                         Max.-Flux-Residual
  Residual-Control   Outer-Iter.   Inner-Iter.     Column Row Layer    Maximum-Head-Change  Column Row Layer    Maximum-Flux-Residual          L2-NORM 
          0                 1           2             5    8     1       0.6937191863E-01       5    8    1         0.3739589845E+01      0.7633001670E+01
          0                 2           2             5    8     1      -0.6748084316E-02       5    8    1        -0.3739651296E+00      0.7633025890E+00
          0                 3           2             5    8     1       0.4595186618E-03       5    8    1         0.2617751223E-01      0.5343106028E-01
          0                 4           1             5    8     1      -0.1828468177E-04       5    8    1        -0.1070662015E-02      0.2185325241E-02

    ------------------------------------------------
       NWT REQUIRED            4 OUTER ITERATIONS 
       AND A TOTAL OF          7 INNER ITERATIONS.
    ------------------------------------------------

 NO OUTPUT CONTROL FOR STRESS PERIOD   11   TIME STEP    4
 
 SOLVING FOR HEAD 
                                                   Max.-Head-Change                         Max.-Flux-Residual
  Residual-Control   Outer-Iter.   Inner-Iter.     Column Row Layer    Maximum-Head-Change  Column Row Layer    Maximum-Flux-Residual          L2-NORM 
          0                 1           2             5    8     1       0.2125490842E+00       5    8    1         0.1164252478E+02      0.1337583766E+02
          0                 2           2             5    8     1       0.7978314470E-01       5    8    1         0.4413235524E+01      0.4462090157E+01
          0                 3           2             5    8     1       0.3000427598E-01       5    8    1         0.1654590233E+01      0.1655257011E+01
          0                 4           2             5    8     1       0.1127158775E-01       5    8    1         0.6218131862E+00      0.6218157043E+00
          0                 5           1             5    8     1       0.4234357406E-02       5    8    1         0.2335835492E+00      0.2335846925E+00
          0                 6           1             5    8     1       0.1590706713E-02       5    8    1         0.8775020074E-01      0.8775057801E-01
          0                 7           1             5    8     1       0.5975755021E-03       5    8    1         0.3296479439E-01      0.3296493806E-01
          0                 8           1             5    8     1       0.2244892155E-03       5    8    1         0.1238377974E-01      0.1238383360E-01
          0                 9           1             5    8     1       0.8433312402E-04       5    8    1         0.4652173668E-02      0.4652193897E-02

    ------------------------------------------------
       NWT REQUIRED            9 OUTER ITERATIONS 
       AND A TOTAL OF         13 INNER ITERATIONS.
    ------------------------------------------------

 NO OUTPUT CONTROL FOR STRESS PERIOD   11   TIME STEP    5
 
 SOLVING FOR HEAD 
                                                   Max.-Head-Change                         Max.-Flux-Residual
  Residual-Control   Outer-Iter.   Inner-Iter.     Column Row Layer    Maximum-Head-Change  Column Row Layer    Maximum-Flux-Residual          L2-NORM 
          0                 1           2             5    8     1       0.1829741955E+00       5    8    1         0.9990940370E+01      0.1205909796E+02
          0                 2           2             5    8     1       0.6873391349E-01       5    8    1         0.3802299766E+01      0.3861794907E+01
          0                 3           2             5    8     1       0.2581972536E-01       5    8    1         0.1423643390E+01      0.1424486505E+01
          0                 4           2             5    8     1       0.9699149416E-02       5    8    1         0.5351022791E+00      0.5351049809E+00
          0                 5           1             5    8     1       0.3643477434E-02       5    8    1         0.2009944829E+00      0.2009955163E+00
          0                 6           1             5    8     1       0.1368669779E-02       5    8    1         0.7550453740E-01      0.7550486158E-01
          0                 7           1             5    8     1       0.5141399270E-03       5    8    1         0.2836315542E-01      0.2836327938E-01
          0                 8           1             5    8     1       0.1931363445E-03       5    8    1         0.1065460980E-01      0.1065465625E-01
          0                 9           1             5    8     1       0.7255154940E-04       5    8    1         0.4002397120E-02      0.4002414565E-02

    ------------------------------------------------
       NWT REQUIRED            9 OUTER ITERATIONS 
       AND A TOTAL OF         13 INNER ITERATIONS.
    ------------------------------------------------

 NO OUTPUT CONTROL FOR STRESS PERIOD   11   TIME STEP    6
 
 SOLVING FOR HEAD 
                                                   Max.-Head-Change                         Max.-Flux-Residual
  Residual-Control   Outer-Iter.   Inner-Iter.     Column Row Layer    Maximum-Head-Change  Column Row Layer    Maximum-Flux-Residual          L2-NORM 
          0                 1           2             5    8     1       0.1831420177E+00       5    8    1         0.9989142324E+01      0.1213921225E+02
          0                 2           2             5    8     1       0.7832947472E-01       5    8    1         0.4332976789E+01      0.4387528681E+01
          0                 3           2             5    8     1       0.3350117580E-01       5    8    1         0.1847391156E+01      0.1848081319E+01
          0                 4           2             5    8     1       0.1432832889E-01       5    8    1         0.7904600826E+00      0.7904642906E+00
          0                 5           1             5    8     1       0.6128175069E-02       5    8    1         0.3380639847E+00      0.3380664840E+00
          0                 6           1             5    8     1       0.2620998975E-02       5    8    1         0.1445894674E+00      0.1445904642E+00
          0                 7           1             5    8     1       0.1120992137E-02       5    8    1         0.6184041316E-01      0.6184084211E-01
          0                 8           1             5    8     1       0.4794444468E-03       5    8    1         0.2644893581E-01      0.2644911908E-01
          0                 9           1             5    8     1       0.2050567289E-03       5    8    1         0.1131211917E-01      0.1131219779E-01
          0                10           1             5    8     1       0.8770205299E-04       5    8    1         0.4838154440E-02      0.4838188554E-02

    ------------------------------------------------
       NWT REQUIRED           10 OUTER ITERATIONS 
       AND A TOTAL OF         14 INNER ITERATIONS.
    ------------------------------------------------

 NO OUTPUT CONTROL FOR STRESS PERIOD   11   TIME STEP    7
 
 SOLVING FOR HEAD 
                                                   Max.-Head-Change                         Max.-Flux-Residual
  Residual-Control   Outer-Iter.   Inner-Iter.     Column Row Layer    Maximum-Head-Change  Column Row Layer    Maximum-Flux-Residual          L2-NORM 
          0                 1           2             5    8     1       0.2542136033E+00       5    8    1         0.1389691599E+02      0.1657057361E+02
          0                 2           2             5    8     1       0.1046993489E+00       5    8    1         0.5788126118E+01      0.6350007139E+01
          0                 3           2             5    8     1       0.4312064480E-01       5    8    1         0.2377651695E+01      0.2582429886E+01
          0                 4           2             5    8     1       0.1775926578E-01       5    8    1         0.9795813294E+00      0.1059635576E+01
          0                 5           2             5    8     1       0.7314127522E-02       5    8    1         0.4034287026E+00      0.4347501265E+00
          0                 6           1             5    8     1       0.3012296398E-02       5    8    1         0.1661522159E+00      0.1784078688E+00
          0                 7           1             5    8     1       0.1240596402E-02       5    8    1         0.6842915802E-01      0.7322453400E-01
          0                 8           1             5    8     1       0.5109295306E-03       5    8    1         0.2818213675E-01      0.3005845559E-01
          0                 9           1             5    8     1       0.2104210666E-03       5    8    1         0.1160657935E-01      0.1234073873E-01
          0                10           1             5    8     1       0.8665930691E-04       5    8    1         0.4780048227E-02      0.5067308968E-02

    ------------------------------------------------
       NWT REQUIRED           10 OUTER ITERATIONS 
       AND A TOTAL OF         15 INNER ITERATIONS.
    ------------------------------------------------

 NO OUTPUT CONTROL FOR STRESS PERIOD   11   TIME STEP    8
 
 SOLVING FOR HEAD 
                                                   Max.-Head-Change                         Max.-Flux-Residual
  Residual-Control   Outer-Iter.   Inner-Iter.     Column Row Layer    Maximum-Head-Change  Column Row Layer    Maximum-Flux-Residual          L2-NORM 
          0                 1           2             5    8     1       0.2236442203E+00       5    8    1         0.1214951753E+02      0.1815777516E+02
          0                 2           2             5    8     1       0.9301628379E-01       5    8    1         0.5099781740E+01      0.7033018496E+01
          0                 3           2             5    8     1       0.3870690573E-01       5    8    1         0.2116569870E+01      0.2873772086E+01
          0                 4           2             5    8     1       0.1611734897E-01       5    8    1         0.8811282823E+00      0.1186220719E+01
          0                 5           2             5    8     1       0.6715324105E-02       5    8    1         0.3669333097E+00      0.4914605562E+00
          0                 6           2             5    8     1       0.2799636278E-02       5    8    1         0.1529023832E+00      0.2043287864E+00
          0                 7           2             5    8     1       0.1167860196E-02       5    8    1         0.6375287184E-01      0.8521172609E-01
          0                 8           2             5    8     1       0.4874479973E-03       5    8    1         0.2659736126E-01      0.3563133045E-01
          0                 9           2             5    8     1       0.2035671489E-03       5    8    1         0.1110258722E-01      0.1493388928E-01
          0                10           1             5    8     1       0.8505953990E-04       5    8    1         0.4637143492E-02      0.6271656648E-02

    ------------------------------------------------
       NWT REQUIRED           10 OUTER ITERATIONS 
       AND A TOTAL OF         19 INNER ITERATIONS.
    ------------------------------------------------

 NO OUTPUT CONTROL FOR STRESS PERIOD   11   TIME STEP    9
 
 SOLVING FOR HEAD 
                                                   Max.-Head-Change                         Max.-Flux-Residual
  Residual-Control   Outer-Iter.   Inner-Iter.     Column Row Layer    Maximum-Head-Change  Column Row Layer    Maximum-Flux-Residual          L2-NORM 
          0                 1           2             4    8     1       0.3145954482E+00       4    8    1         0.1680247317E+02      0.2535515682E+02
          0                 2           2             4    8     1       0.1346695714E+00       4    8    1         0.7202622075E+01      0.1056183508E+02
          0                 3           2             4    8     1       0.5760737651E-01       4    8    1         0.3082282465E+01      0.4456529142E+01
          0                 4           2             4    8     1       0.2462673068E-01       4    8    1         0.1318385447E+01      0.1883942219E+01
          0                 5           2             4    8     1       0.1052162373E-01       4    8    1         0.5635279345E+00      0.7966744642E+00
          0                 6           2             4    8     1       0.4492948558E-02       4    8    1         0.2407385785E+00      0.3370123916E+00
          0                 7           2             4    8     1       0.1917675646E-02       4    8    1         0.1027902705E+00      0.1426038647E+00
          0                 8           2             4    8     1       0.8181513366E-03       4    8    1         0.4386899518E-01      0.6035581486E-01
          0                 9           2             4    8     1       0.3489188381E-03       4    8    1         0.1871465006E-01      0.2555012983E-01
          0                10           2             4    8     1       0.1487520631E-03       4    8    1         0.7980704937E-02      0.1081783353E-01
          0                11           1             4    8     1       0.6339619314E-04       4    8    1         0.3402134441E-02      0.4580890857E-02

    ------------------------------------------------
       NWT REQUIRED           11 OUTER ITERATIONS 
       AND A TOTAL OF         21 INNER ITERATIONS.
    ------------------------------------------------

 NO OUTPUT CONTROL FOR STRESS PERIOD   11   TIME STEP   10
 
 SOLVING FOR HEAD 
                                                   Max.-Head-Change                         Max.-Flux-Residual
  Residual-Control   Outer-Iter.   Inner-Iter.     Column Row Layer    Maximum-Head-Change  Column Row Layer    Maximum-Flux-Residual          L2-NORM 
          0                 1           2             5    7     1       0.3015719643E+00       5    7    1         0.1622753845E+02      0.3000989293E+02
          0                 2           2             4    8     1       0.1283669805E+00       5    7    1         0.6892372321E+01      0.1272752515E+02
          0                 3           2             4    8     1       0.5521094892E-01       4    8    1         0.2940584390E+01      0.5440548969E+01
          0                 4           2             4    8     1       0.2375171292E-01       4    8    1         0.1264850400E+01      0.2331344873E+01
          0                 5           2             4    8     1       0.1022002301E-01       4    8    1         0.5441593948E+00      0.1000260146E+01
          0                 6           2             4    8     1       0.4398318156E-02       4    8    1         0.2341528346E+00      0.4296032234E+00
          0                 7           2             4    8     1       0.1893176053E-02       4    8    1         0.1007740228E+00      0.1846604932E+00
          0                 8           2             4    8     1       0.8150002011E-03       4    8    1         0.4337763032E-01      0.7942542430E-01
          0                 9           2             4    7     1       0.3523401986E-03       4    8    1         0.1867428807E-01      0.3417950942E-01
          0                10           2             4    7     1       0.1533769141E-03       4    7    1         0.8091345160E-02      0.1471454708E-01
          0                11           1             4    7     1       0.6671139802E-04       4    7    1         0.3521640027E-02      0.6336749640E-02

    ------------------------------------------------
       NWT REQUIRED           11 OUTER ITERATIONS 
       AND A TOTAL OF         21 INNER ITERATIONS.
    ------------------------------------------------

 NO OUTPUT CONTROL FOR STRESS PERIOD   11   TIME STEP   11
 
 SOLVING FOR HEAD 
                                                   Max.-Head-Change                         Max.-Flux-Residual
  Residual-Control   Outer-Iter.   Inner-Iter.     Column Row Layer    Maximum-Head-Change  Column Row Layer    Maximum-Flux-Residual          L2-NORM 
          0                 1           2             5    6     1       0.2978381664E+00       5    6    1         0.1597673983E+02      0.3364493104E+02
          0                 2           2             5    6     1       0.1269012061E+00       5    6    1         0.6812083931E+01      0.1430645683E+02
          0                 3           2             5    6     1       0.5406892005E-01       5    6    1         0.2901997298E+01      0.6083742228E+01
          0                 4           2             4    7     1       0.2330535258E-01       5    6    1         0.1236503081E+01      0.2591877168E+01
          0                 5           2             4    7     1       0.1018019797E-01       4    7    1         0.5355967792E+00      0.1105264472E+01
          0                 6           2             4    7     1       0.4440489055E-02       4    7    1         0.2338894153E+00      0.4717425629E+00
          0                 7           2             4    7     1       0.1934407496E-02       4    7    1         0.1019932016E+00      0.2015060672E+00
          0                 8           2             4    7     1       0.8417191539E-03       4    7    1         0.4442083455E-01      0.8613526544E-01
          0                 9           2             4    7     1       0.3658814806E-03       4    7    1         0.1932479825E-01      0.3684275691E-01
          0                10           2             4    7     1       0.1588960424E-03       4    7    1         0.8398593396E-02      0.1576788218E-01
          0                11           1             4    7     1       0.6894855051E-04       4    7    1         0.3646748371E-02      0.6751798607E-02

    ------------------------------------------------
       NWT REQUIRED           11 OUTER ITERATIONS 
       AND A TOTAL OF         21 INNER ITERATIONS.
    ------------------------------------------------

 NO OUTPUT CONTROL FOR STRESS PERIOD   11   TIME STEP   12
 
 SOLVING FOR HEAD 
                                                   Max.-Head-Change                         Max.-Flux-Residual
  Residual-Control   Outer-Iter.   Inner-Iter.     Column Row Layer    Maximum-Head-Change  Column Row Layer    Maximum-Flux-Residual          L2-NORM 
          0                 1           2             4    6     1       0.2857399639E+00       4    6    1         0.1513936577E+02      0.3119101111E+02
          0                 2           2             4    6     1       0.1233573604E+00       4    6    1         0.6554231573E+01      0.1297271741E+02
          0                 3           2             4    6     1       0.5318940091E-01       4    6    1         0.2827735514E+01      0.5442937219E+01
          0                 4           2             4    6     1       0.2290860973E-01       4    6    1         0.1219043283E+01      0.2287990728E+01
          0                 5           2             4    6     1       0.9856640727E-02       4    6    1         0.5249299801E+00      0.9622817651E+00
          0                 6           2             4    6     1       0.4236952694E-02       4    6    1         0.2258134241E+00      0.4049317346E+00
          0                 7           2             4    6     1       0.1819728272E-02       4    6    1         0.9705083981E-01      0.1704794026E+00
          0                 8           2             4    6     1       0.7809402898E-03       4    6    1         0.4167573174E-01      0.7180528500E-01
          0                 9           2             4    6     1       0.3348994624E-03       4    6    1         0.1788261526E-01      0.3025660888E-01
          0                10           2             4    6     1       0.1435227134E-03       4    6    1         0.7667770615E-02      0.1275409725E-01
          0                11           1             4    6     1       0.6146935555E-04       4    6    1         0.3285649332E-02      0.5378142440E-02

    ------------------------------------------------
       NWT REQUIRED           11 OUTER ITERATIONS 
       AND A TOTAL OF         21 INNER ITERATIONS.
    ------------------------------------------------

 NO OUTPUT CONTROL FOR STRESS PERIOD   11   TIME STEP   13
 
 SOLVING FOR HEAD 
                                                   Max.-Head-Change                         Max.-Flux-Residual
  Residual-Control   Outer-Iter.   Inner-Iter.     Column Row Layer    Maximum-Head-Change  Column Row Layer    Maximum-Flux-Residual          L2-NORM 
          0                 1           2             4    6     1       0.2732092900E+00       4    6    1         0.1453015932E+02      0.2789448745E+02
          0                 2           2             4    6     1       0.1157936412E+00       4    6    1         0.6178115291E+01      0.1147852375E+02
          0                 3           2             4    6     1       0.4766582637E-01       4    6    1         0.2540908116E+01      0.4745960035E+01
          0                 4           2             4    6     1       0.1962977088E-01       4    6    1         0.1046117643E+01      0.1966367438E+01
          0                 5           2             4    6     1       0.8087224844E-02       4    6    1         0.4308461282E+00      0.8148433714E+00
          0                 6           2             4    6     1       0.3333120023E-02       4    6    1         0.1775174595E+00      0.3377340226E+00
          0                 7           2             4    6     1       0.1374234838E-02       4    6    1         0.7316862225E-01      0.1400082011E+00
          0                 8           2             4    6     1       0.5667889120E-03       4    6    1         0.3016932220E-01      0.5805004624E-01
          0                 9           2             4    6     1       0.2338429769E-03       4    6    1         0.1244385675E-01      0.2407215092E-01
          0                10           1             4    6     1       0.9650793872E-04       4    6    1         0.5134350641E-02      0.9983528163E-02

    ------------------------------------------------
       NWT REQUIRED           10 OUTER ITERATIONS 
       AND A TOTAL OF         19 INNER ITERATIONS.
    ------------------------------------------------

 NO OUTPUT CONTROL FOR STRESS PERIOD   11   TIME STEP   14
 
 SOLVING FOR HEAD 
                                                   Max.-Head-Change                         Max.-Flux-Residual
  Residual-Control   Outer-Iter.   Inner-Iter.     Column Row Layer    Maximum-Head-Change  Column Row Layer    Maximum-Flux-Residual          L2-NORM 
          0                 1           2             4    7     1       0.2117799564E+00       4    7    1         0.1106159802E+02      0.2561646191E+02
          0                 2           2             4    7     1       0.8925654762E-01       4    7    1         0.4670886895E+01      0.1039093713E+02
          0                 3           2             4    7     1       0.3758323035E-01       4    7    1         0.1967731086E+01      0.4296208238E+01
          0                 4           2             4    7     1       0.1581163420E-01       4    7    1         0.8284385777E+00      0.1781031568E+01
          0                 5           2             4    7     1       0.6646831183E-02       4    7    1         0.3484749413E+00      0.7384021100E+00
          0                 6           2             4    7     1       0.2792107225E-02       4    7    1         0.1464685787E+00      0.3061841515E+00
          0                 7           2             4    7     1       0.1172063974E-02       4    7    1         0.6151786257E-01      0.1269782297E+00
          0                 8           2             4    7     1       0.4916914838E-03       4    7    1         0.2582045746E-01      0.5266568199E-01
          0                 9           2             4    7     1       0.2061459895E-03       4    7    1         0.1083060146E-01      0.2184605677E-01
          0                10           1             4    7     1       0.8638038195E-04       4    7    1         0.4540310558E-02      0.9062767756E-02

    ------------------------------------------------
       NWT REQUIRED           10 OUTER ITERATIONS 
       AND A TOTAL OF         19 INNER ITERATIONS.
    ------------------------------------------------

 NO OUTPUT CONTROL FOR STRESS PERIOD   11   TIME STEP   15
 
 SOLVING FOR HEAD 
                                                   Max.-Head-Change                         Max.-Flux-Residual
  Residual-Control   Outer-Iter.   Inner-Iter.     Column Row Layer    Maximum-Head-Change  Column Row Layer    Maximum-Flux-Residual          L2-NORM 
          0                 1           2             4    7     1       0.2087664733E+00       4    7    1         0.1093080693E+02      0.2447432894E+02
          0                 2           2             4    7     1       0.8762778884E-01       4    7    1         0.4601749220E+01      0.9712838257E+01
          0                 3           2             4    7     1       0.3670911626E-01       4    7    1         0.1930213839E+01      0.3953118356E+01
          0                 4           2             4    7     1       0.1535181981E-01       4    7    1         0.8083447342E+00      0.1615650119E+01
          0                 5           2             4    7     1       0.6410426093E-02       4    7    1         0.3379411304E+00      0.6608685776E+00
          0                 6           2             4    7     1       0.2673191314E-02       4    7    1         0.1410731393E+00      0.2705462166E+00
          0                 7           2             4    7     1       0.1113407442E-02       4    7    1         0.5881354408E-01      0.1108349570E+00
          0                 8           2             4    7     1       0.4632500092E-03       4    7    1         0.2449082108E-01      0.4543435131E-01
          0                 9           2             4    7     1       0.1925586856E-03       4    7    1         0.1018772165E-01      0.1863508663E-01
          0                10           1             4    7     1       0.7997240884E-04       4    7    1         0.4233956028E-02      0.7646969794E-02

    ------------------------------------------------
       NWT REQUIRED           10 OUTER ITERATIONS 
       AND A TOTAL OF         19 INNER ITERATIONS.
    ------------------------------------------------

 NO OUTPUT CONTROL FOR STRESS PERIOD   11   TIME STEP   16
 
 SOLVING FOR HEAD 
                                                   Max.-Head-Change                         Max.-Flux-Residual
  Residual-Control   Outer-Iter.   Inner-Iter.     Column Row Layer    Maximum-Head-Change  Column Row Layer    Maximum-Flux-Residual          L2-NORM 
          0                 1           2             4    7     1       0.2025869980E+00       4    7    1         0.1066526683E+02      0.2221060207E+02
          0                 2           2             4    7     1       0.8065889434E-01       4    6    1         0.4255782330E+01      0.8562933288E+01
          0                 3           2             4    6     1       0.3311776330E-01       4    6    1         0.1759670141E+01      0.3417863327E+01
          0                 4           2             4    6     1       0.1367207614E-01       4    6    1         0.7273976510E+00      0.1370695173E+01
          0                 5           2             4    6     1       0.5636905545E-02       4    6    1         0.3002055899E+00      0.5500660337E+00
          0                 6           2             4    6     1       0.2321309424E-02       4    6    1         0.1237420929E+00      0.2208940288E+00
          0                 7           2             4    6     1       0.9549003763E-03       4    6    1         0.5094614028E-01      0.8876040975E-01
          0                 8           2             4    6     1       0.3924254251E-03       4    6    1         0.2095302511E-01      0.3568630248E-01
          0                 9           2             4    6     1       0.1611264552E-03       4    6    1         0.8609223978E-02      0.1435530393E-01
          0                10           1             4    6     1       0.6610285296E-04       4    6    1         0.3534262879E-02      0.5777434993E-02

    ------------------------------------------------
       NWT REQUIRED           10 OUTER ITERATIONS 
       AND A TOTAL OF         19 INNER ITERATIONS.
    ------------------------------------------------

 NO OUTPUT CONTROL FOR STRESS PERIOD   11   TIME STEP   17
 
 SOLVING FOR HEAD 
                                                   Max.-Head-Change                         Max.-Flux-Residual
  Residual-Control   Outer-Iter.   Inner-Iter.     Column Row Layer    Maximum-Head-Change  Column Row Layer    Maximum-Flux-Residual          L2-NORM 
          0                 1           2             4    6     1       0.1855893147E+00       4    6    1         0.9856437058E+01      0.1984085518E+02
          0                 2           2             4    6     1       0.7628336207E-01       4    6    1         0.4076932001E+01      0.7541114864E+01
          0                 3           2             4    6     1       0.3133050206E-01       4    6    1         0.1673315093E+01      0.3009242992E+01
          0                 4           2             4    6     1       0.1285843660E-01       4    6    1         0.6872786946E+00      0.1208489049E+01
          0                 5           2             4    6     1       0.5273682936E-02       4    6    1         0.2820231720E+00      0.4855205577E+00
          0                 6           2             4    6     1       0.2161546847E-02       4    6    1         0.1156523965E+00      0.1951653433E+00
          0                 7           2             4    6     1       0.8854380121E-03       4    6    1         0.4739712986E-01      0.7848809296E-01
          0                 8           2             4    6     1       0.3625025914E-03       4    6    1         0.1941314195E-01      0.3157913992E-01
          0                 9           2             4    6     1       0.1483333207E-03       4    6    1         0.7946981574E-02      0.1271103703E-01
          0                10           1             4    6     1       0.6066739775E-04       4    6    1         0.3251517857E-02      0.5118411884E-02

    ------------------------------------------------
       NWT REQUIRED           10 OUTER ITERATIONS 
       AND A TOTAL OF         19 INNER ITERATIONS.
    ------------------------------------------------

 NO OUTPUT CONTROL FOR STRESS PERIOD   11   TIME STEP   18
 
 SOLVING FOR HEAD 
                                                   Max.-Head-Change                         Max.-Flux-Residual
  Residual-Control   Outer-Iter.   Inner-Iter.     Column Row Layer    Maximum-Head-Change  Column Row Layer    Maximum-Flux-Residual          L2-NORM 
          0                 1           2             4    7     1       0.1511207489E+00       4    6    1         0.7958881678E+01      0.1840301843E+02
          0                 2           2             4    7     1       0.6056907597E-01       4    7    1         0.3175483737E+01      0.6777842857E+01
          0                 3           2             4    7     1       0.2425482422E-01       4    7    1         0.1271898185E+01      0.2655750760E+01
          0                 4           2             4    7     1       0.9704966034E-02       4    7    1         0.5092812729E+00      0.1048469531E+01
          0                 5           2             4    7     1       0.3880287209E-02       4    7    1         0.2037424065E+00      0.4139431701E+00
          0                 6           2             4    7     1       0.1550354000E-02       4    7    1         0.8144932767E-01      0.1634547366E+00
          0                 7           2             4    7     1       0.6190365174E-03       4    7    1         0.3253829634E-01      0.6455134959E-01
          0                 8           2             4    7     1       0.2470242279E-03       4    7    1         0.1299046408E-01      0.2549528005E-01
          0                 9           1             4    7     1       0.9851869182E-04       4    7    1         0.5183178962E-02      0.1007060718E-01

    ------------------------------------------------
       NWT REQUIRED            9 OUTER ITERATIONS 
       AND A TOTAL OF         17 INNER ITERATIONS.
    ------------------------------------------------

 NO OUTPUT CONTROL FOR STRESS PERIOD   11   TIME STEP   19
 
 SOLVING FOR HEAD 
                                                   Max.-Head-Change                         Max.-Flux-Residual
  Residual-Control   Outer-Iter.   Inner-Iter.     Column Row Layer    Maximum-Head-Change  Column Row Layer    Maximum-Flux-Residual          L2-NORM 
          0                 1           2             4    7     1       0.1486633468E+00       4    7    1         0.7793334808E+01      0.1751566883E+02
          0                 2           2             4    7     1       0.5939358252E-01       4    7    1         0.3121772370E+01      0.6364220672E+01
          0                 3           2             4    7     1       0.2371414223E-01       4    7    1         0.1246423416E+01      0.2490248181E+01
          0                 4           2             4    7     1       0.9462911946E-02       4    7    1         0.4976402664E+00      0.9829596448E+00
          0                 5           2             4    7     1       0.3774044976E-02       4    7    1         0.1985546974E+00      0.3880061497E+00
          0                 6           2             4    7     1       0.1504418625E-02       4    7    1         0.7918016644E-01      0.1531824052E+00
          0                 7           2             4    7     1       0.5994088802E-03       4    7    1         0.3155981012E-01      0.6048190626E-01
          0                 8           2             4    7     1       0.2387168398E-03       4    7    1         0.1257325875E-01      0.2388280251E-01
          0                 9           1             4    7     1       0.9502985811E-04       4    7    1         0.5006903178E-02      0.9431570238E-02

    ------------------------------------------------
       NWT REQUIRED            9 OUTER ITERATIONS 
       AND A TOTAL OF         17 INNER ITERATIONS.
    ------------------------------------------------

 NO OUTPUT CONTROL FOR STRESS PERIOD   11   TIME STEP   20
 
 SOLVING FOR HEAD 
                                                   Max.-Head-Change                         Max.-Flux-Residual
  Residual-Control   Outer-Iter.   Inner-Iter.     Column Row Layer    Maximum-Head-Change  Column Row Layer    Maximum-Flux-Residual          L2-NORM 
          0                 1           2             4    7     1       0.1458867739E+00       4    7    1         0.7651101151E+01      0.1718897012E+02
          0                 2           2             4    7     1       0.5824892668E-01       4    7    1         0.3063134726E+01      0.6196474798E+01
          0                 3           2             4    7     1       0.2324432053E-01       4    7    1         0.1222251295E+01      0.2422575067E+01
          0                 4           2             4    7     1       0.9270795962E-02       4    7    1         0.4877285831E+00      0.9562574530E+00
          0                 5           2             4    7     1       0.3695739146E-02       4    7    1         0.1945045100E+00      0.3774717416E+00
          0                 6           2             4    7     1       0.1472590474E-02       4    7    1         0.7753034134E-01      0.1490264383E+00
          0                 7           2             4    7     1       0.5865035283E-03       4    7    1         0.3088958178E-01      0.5884217413E-01
          0                 8           2             4    7     1       0.2334953007E-03       4    7    1         0.1230162881E-01      0.2323577777E-01
          0                 9           1             4    7     1       0.9292119979E-04       4    7    1         0.4897046360E-02      0.9176227942E-02

    ------------------------------------------------
       NWT REQUIRED            9 OUTER ITERATIONS 
       AND A TOTAL OF         17 INNER ITERATIONS.
    ------------------------------------------------

 NO OUTPUT CONTROL FOR STRESS PERIOD   11   TIME STEP   21
 
 SOLVING FOR HEAD 
                                                   Max.-Head-Change                         Max.-Flux-Residual
  Residual-Control   Outer-Iter.   Inner-Iter.     Column Row Layer    Maximum-Head-Change  Column Row Layer    Maximum-Flux-Residual          L2-NORM 
          0                 1           2             4    7     1       0.1423273316E+00       4    7    1         0.7505369085E+01      0.1593852850E+02
          0                 2           2             4    7     1       0.5640129532E-01       4    7    1         0.2984291501E+01      0.5535197032E+01
          0                 3           2             4    7     1       0.2232439810E-01       4    7    1         0.1181650744E+01      0.2128139611E+01
          0                 4           2             4    7     1       0.8827106745E-02       4    7    1         0.4676482366E+00      0.8287665679E+00
          0                 5           2             4    7     1       0.3487023469E-02       4    7    1         0.1848695456E+00      0.3229647558E+00
          0                 6           2             4    7     1       0.1376363002E-02       4    7    1         0.7301686931E-01      0.1259465806E+00
          0                 7           2             4    7     1       0.5428640986E-03       4    7    1         0.2881579832E-01      0.4914403437E-01
          0                 8           2             4    7     1       0.2139750005E-03       4    7    1         0.1136385360E-01      0.1918579556E-01
          0                 9           1             4    7     1       0.8429048058E-04       4    7    1         0.4478586682E-02      0.7493528487E-02

    ------------------------------------------------
       NWT REQUIRED            9 OUTER ITERATIONS 
       AND A TOTAL OF         17 INNER ITERATIONS.
    ------------------------------------------------

 NO OUTPUT CONTROL FOR STRESS PERIOD   11   TIME STEP   22
 
 SOLVING FOR HEAD 
                                                   Max.-Head-Change                         Max.-Flux-Residual
  Residual-Control   Outer-Iter.   Inner-Iter.     Column Row Layer    Maximum-Head-Change  Column Row Layer    Maximum-Flux-Residual          L2-NORM 
          0                 1           2             4    7     1       0.1317104601E+00       4    7    1         0.6952336523E+01      0.1491991623E+02
          0                 2           2             4    7     1       0.4942976367E-01       4    7    1         0.2613862929E+01      0.4942073841E+01
          0                 3           2             4    7     1       0.1856939732E-01       4    7    1         0.9805356288E+00      0.1849415040E+01
          0                 4           2             4    6     1       0.7147471074E-02       4    6    1         0.3805341612E+00      0.7033211856E+00
          0                 5           2             4    6     1       0.2804835339E-02       4    6    1         0.1495006651E+00      0.2677107202E+00
          0                 6           2             4    6     1       0.1099185242E-02       4    6    1         0.5865021559E-01      0.1019961741E+00
          0                 7           2             4    6     1       0.4302306089E-03       4    6    1         0.2297817143E-01      0.3889130167E-01
          0                 8           2             4    6     1       0.1682091501E-03       4    6    1         0.8991658577E-02      0.1484043772E-01
          0                 9           1             4    6     1       0.6569933944E-04       4    6    1         0.3514730281E-02      0.5666846410E-02

    ------------------------------------------------
       NWT REQUIRED            9 OUTER ITERATIONS 
       AND A TOTAL OF         17 INNER ITERATIONS.
    ------------------------------------------------

 NO OUTPUT CONTROL FOR STRESS PERIOD   11   TIME STEP   23
 
 SOLVING FOR HEAD 
                                                   Max.-Head-Change                         Max.-Flux-Residual
  Residual-Control   Outer-Iter.   Inner-Iter.     Column Row Layer    Maximum-Head-Change  Column Row Layer    Maximum-Flux-Residual          L2-NORM 
          0                 1           2             4    6     1       0.1128221472E+00       4    6    1         0.5974045991E+01      0.1347024973E+02
          0                 2           2             4    6     1       0.4408639542E-01       4    6    1         0.2363177709E+01      0.4286951487E+01
          0                 3           2             4    6     1       0.1721332758E-01       4    6    1         0.9207121028E+00      0.1600574753E+01
          0                 4           2             4    6     1       0.6715875780E-02       4    6    1         0.3595923245E+00      0.6100307524E+00
          0                 5           2             4    6     1       0.2618426209E-02       4    6    1         0.1402695872E+00      0.2326512514E+00
          0                 6           2             4    6     1       0.1020231120E-02       4    6    1         0.5468185098E-01      0.8878671110E-01
          0                 7           2             4    6     1       0.3972795536E-03       4    6    1         0.2130321082E-01      0.3390287579E-01
          0                 8           2             4    6     1       0.1546146153E-03       4    6    1         0.8294501743E-02      0.1295274751E-01
          0                 9           1             4    6     1       0.6014198035E-04       4    6    1         0.3227718248E-02      0.4951218366E-02

    ------------------------------------------------
       NWT REQUIRED            9 OUTER ITERATIONS 
       AND A TOTAL OF         17 INNER ITERATIONS.
    ------------------------------------------------

 NO OUTPUT CONTROL FOR STRESS PERIOD   11   TIME STEP   24
 
 SOLVING FOR HEAD 
                                                   Max.-Head-Change                         Max.-Flux-Residual
  Residual-Control   Outer-Iter.   Inner-Iter.     Column Row Layer    Maximum-Head-Change  Column Row Layer    Maximum-Flux-Residual          L2-NORM 
          0                 1           2             4    6     1       0.1050855592E+00       4    6    1         0.5551901027E+01      0.1321863984E+02
          0                 2           2             4    6     1       0.3897725224E-01       4    6    1         0.2084986445E+01      0.4095923118E+01
          0                 3           2             4    6     1       0.1446391266E-01       4    6    1         0.7709248068E+00      0.1500699967E+01
          0                 4           2             4    6     1       0.5369816981E-02       4    6    1         0.2862667631E+00      0.5620814999E+00
          0                 5           2             4    6     1       0.1994446967E-02       4    6    1         0.1062821683E+00      0.2105574558E+00
          0                 6           2             4    6     1       0.7410814898E-03       4    6    1         0.3947900634E-01      0.7888859141E-01
          0                 7           2             4    7     1       0.2795362547E-03       4    7    1         0.1469257950E-01      0.2955913250E-01
          0                 8           1             4    7     1       0.1056222020E-03       4    7    1         0.5553846761E-02      0.1107650433E-01
          0                 9           1             4    7     1       0.3988962066E-04       4    7    1         0.2098281101E-02      0.4150912903E-02

    ------------------------------------------------
       NWT REQUIRED            9 OUTER ITERATIONS 
       AND A TOTAL OF         16 INNER ITERATIONS.
    ------------------------------------------------

 NO OUTPUT CONTROL FOR STRESS PERIOD   11   TIME STEP   25
 
 SOLVING FOR HEAD 
                                                   Max.-Head-Change                         Max.-Flux-Residual
  Residual-Control   Outer-Iter.   Inner-Iter.     Column Row Layer    Maximum-Head-Change  Column Row Layer    Maximum-Flux-Residual          L2-NORM 
          0                 1           2             4    7     1       0.9313156275E-01       4    7    1         0.4892443367E+01      0.1232492201E+02
          0                 2           2             4    7     1       0.3508350127E-01       4    7    1         0.1850607288E+01      0.3651284590E+01
          0                 3           2             4    7     1       0.1321298566E-01       4    7    1         0.6964277877E+00      0.1324657333E+01
          0                 4           2             4    7     1       0.4974946178E-02       4    7    1         0.2623154812E+00      0.4940923291E+00
          0                 5           2             4    7     1       0.1872679338E-02       4    7    1         0.9875984113E-01      0.1844019339E+00
          0                 6           2             4    7     1       0.7047347769E-03       4    7    1         0.3717343515E-01      0.6885017924E-01
          0                 7           2             4    7     1       0.2651404005E-03       4    7    1         0.1398850312E-01      0.2571356483E-01
          0                 8           1             4    7     1       0.9972763306E-04       4    7    1         0.5262571085E-02      0.9605499953E-02

    ------------------------------------------------
       NWT REQUIRED            8 OUTER ITERATIONS 
       AND A TOTAL OF         15 INNER ITERATIONS.
    ------------------------------------------------

 NO OUTPUT CONTROL FOR STRESS PERIOD   11   TIME STEP   26
 
 SOLVING FOR HEAD 
                                                   Max.-Head-Change                         Max.-Flux-Residual
  Residual-Control   Outer-Iter.   Inner-Iter.     Column Row Layer    Maximum-Head-Change  Column Row Layer    Maximum-Flux-Residual          L2-NORM 
          0                 1           2             4    7     1       0.9110203161E-01       4    7    1         0.4785469988E+01      0.1193982713E+02
          0                 2           2             4    7     1       0.3431308709E-01       4    7    1         0.1810314709E+01      0.3471497470E+01
          0                 3           2             4    7     1       0.1291878558E-01       4    7    1         0.6811015676E+00      0.1258831833E+01
          0                 4           2             4    7     1       0.4862107703E-02       4    7    1         0.2564565187E+00      0.4702995174E+00
          0                 5           2             4    7     1       0.1829270189E-02       4    7    1         0.9651077243E-01      0.1757643459E+00
          0                 6           2             4    7     1       0.6880032481E-03       4    7    1         0.3630772473E-01      0.6569887865E-01
          0                 7           2             4    7     1       0.2586847697E-03       4    7    1         0.1365470902E-01      0.2455914143E-01
          0                 8           1             4    7     1       0.9723594243E-04       4    7    1         0.5133758360E-02      0.9181154872E-02

    ------------------------------------------------
       NWT REQUIRED            8 OUTER ITERATIONS 
       AND A TOTAL OF         15 INNER ITERATIONS.
    ------------------------------------------------

 NO OUTPUT CONTROL FOR STRESS PERIOD   11   TIME STEP   27
 
 SOLVING FOR HEAD 
                                                   Max.-Head-Change                         Max.-Flux-Residual
  Residual-Control   Outer-Iter.   Inner-Iter.     Column Row Layer    Maximum-Head-Change  Column Row Layer    Maximum-Flux-Residual          L2-NORM 
          0                 1           2             4    7     1       0.8910641307E-01       4    7    1         0.4680492260E+01      0.1178875061E+02
          0                 2           2             4    7     1       0.3355914204E-01       4    7    1         0.1770674537E+01      0.3404288099E+01
          0                 3           2             4    7     1       0.1263437122E-01       4    7    1         0.6661238609E+00      0.1233148980E+01
          0                 4           2             4    7     1       0.4754952496E-02       4    7    1         0.2508085713E+00      0.4606841304E+00
          0                 5           2             4    7     1       0.1788941979E-02       4    7    1         0.9438339001E-01      0.1721671761E+00
          0                 6           2             4    7     1       0.6728393990E-03       4    7    1         0.3550725177E-01      0.6435342697E-01
          0                 7           2             4    7     1       0.2529873939E-03       4    7    1         0.1335377777E-01      0.2405595554E-01
          0                 8           1             4    7     1       0.9509671942E-04       4    7    1         0.5020709853E-02      0.8992980225E-02

    ------------------------------------------------
       NWT REQUIRED            8 OUTER ITERATIONS 
       AND A TOTAL OF         15 INNER ITERATIONS.
    ------------------------------------------------

 NO OUTPUT CONTROL FOR STRESS PERIOD   11   TIME STEP   28
 
 SOLVING FOR HEAD 
                                                   Max.-Head-Change                         Max.-Flux-Residual
  Residual-Control   Outer-Iter.   Inner-Iter.     Column Row Layer    Maximum-Head-Change  Column Row Layer    Maximum-Flux-Residual          L2-NORM 
          0                 1           2             4    7     1       0.8715784882E-01       4    7    1         0.4577821114E+01      0.1164676047E+02
          0                 2           2             4    7     1       0.3282439962E-01       4    7    1         0.1731985922E+01      0.3340696187E+01
          0                 3           2             4    7     1       0.1235766704E-01       4    7    1         0.6515334185E+00      0.1208776863E+01
          0                 4           2             4    7     1       0.4650855069E-02       4    7    1         0.2453156135E+00      0.4515402349E+00
          0                 5           2             4    7     1       0.1749814843E-02       4    7    1         0.9231733253E-01      0.1687407843E+00
          0                 6           2             4    7     1       0.6581437301E-03       4    7    1         0.3473082226E-01      0.6307016008E-01
          0                 7           2             4    7     1       0.2474713920E-03       4    7    1         0.1306220478E-01      0.2357551507E-01
          0                 8           1             4    7     1       0.9302740707E-04       4    7    1         0.4911282387E-02      0.8813156477E-02

    ------------------------------------------------
       NWT REQUIRED            8 OUTER ITERATIONS 
       AND A TOTAL OF         15 INNER ITERATIONS.
    ------------------------------------------------

 NO OUTPUT CONTROL FOR STRESS PERIOD   11   TIME STEP   29
 
 SOLVING FOR HEAD 
                                                   Max.-Head-Change                         Max.-Flux-Residual
  Residual-Control   Outer-Iter.   Inner-Iter.     Column Row Layer    Maximum-Head-Change  Column Row Layer    Maximum-Flux-Residual          L2-NORM 
          0                 1           2             4    7     1       0.8501430342E-01       4    7    1         0.4477670122E+01      0.1124705187E+02
          0                 2           2             4    7     1       0.3189175753E-01       4    7    1         0.1688143692E+01      0.3125596485E+01
          0                 3           2             4    7     1       0.1195600037E-01       4    7    1         0.6324858078E+00      0.1118471788E+01
          0                 4           2             4    7     1       0.4479626334E-02       4    7    1         0.2371287404E+00      0.4150962570E+00
          0                 5           2             4    7     1       0.1677528486E-02       4    7    1         0.8883404221E-01      0.1541918826E+00
          0                 6           2             4    7     1       0.6279019303E-03       4    7    1         0.3326301840E-01      0.5730650365E-01
          0                 7           2             4    7     1       0.2349237527E-03       4    7    1         0.1244918617E-01      0.2130608570E-01
          0                 8           1             4    7     1       0.8786030475E-04       4    7    1         0.4657335719E-02      0.7923962267E-02

    ------------------------------------------------
       NWT REQUIRED            8 OUTER ITERATIONS 
       AND A TOTAL OF         15 INNER ITERATIONS.
    ------------------------------------------------

 NO OUTPUT CONTROL FOR STRESS PERIOD   11   TIME STEP   30



 STREAM LISTING     PERIOD     11   STEP       30

 LAYER ROW COL. STREAM  RCH.  FLOW INTO     FLOW TO   FLOW OUT OF   OVRLND.     DIRECT     STREAM       STREAM     STREAM     STREAM   STREAMBED  STREAMBED
                SEG.NO.  NO.  STRM. RCH.    AQUIFER    STRM. RCH.    RUNOFF     PRECIP       ET          HEAD       DEPTH      WIDTH   CONDCTNC.   GRADIENT

   1    1    1     1     1    1.3125E+01  1.7336E-01   1.2952E+01  0.000E+00  0.000E+00  0.000E+00  1.09402E+03  9.718E-01  9.699E+00  4.365E-02  1.324E+00
   1    2    2     1     2    1.2952E+01  2.6707E-01   1.2684E+01  0.000E+00  0.000E+00  0.000E+00  1.08903E+03  9.671E-01  9.617E+00  6.732E-02  1.322E+00
   1    3    3     1     3    1.2684E+01  2.2641E-01   1.2458E+01  0.000E+00  0.000E+00  0.000E+00  1.08338E+03  9.616E-01  9.525E+00  5.715E-02  1.321E+00
   1    3    4     1     4    1.2458E+01  2.0737E-01   1.2251E+01  0.000E+00  0.000E+00  0.000E+00  1.07836E+03  9.568E-01  9.443E+00  5.241E-02  1.319E+00
   1    4    5     2     1    1.0251E+01  2.8870E-01   9.9620E+00  0.000E+00  0.000E+00  0.000E+00  1.07264E+03  7.013E-01  1.200E+01  7.800E-02  1.234E+00
   1    5    6     2     2    9.9620E+00  2.2144E-01   9.7406E+00  0.000E+00  0.000E+00  0.000E+00  1.06720E+03  6.906E-01  1.200E+01  6.000E-02  1.230E+00
   1    6    6     2     3    9.7406E+00  2.2088E-01   9.5197E+00  0.000E+00  0.000E+00  0.000E+00  1.06247E+03  6.813E-01  1.200E+01  6.000E-02  1.227E+00
   1    7    6     2     4    9.5197E+00  2.2031E-01   9.2994E+00  0.000E+00  0.000E+00  0.000E+00  1.05775E+03  6.719E-01  1.200E+01  6.000E-02  1.224E+00
   1    8    6     2     5    9.2994E+00  2.1974E-01   9.0796E+00  0.000E+00  0.000E+00  0.000E+00  1.05302E+03  6.624E-01  1.200E+01  6.000E-02  1.221E+00
   1    3    5     3     1    2.0000E+00  2.8252E-01   1.7175E+00  0.000E+00  0.000E+00  0.000E+00  1.07555E+03  1.909E+00  9.636E+00  7.227E-02  1.955E+00
   1    3    6     3     2    1.7175E+00  2.4905E-01   1.4684E+00  0.000E+00  0.000E+00  0.000E+00  1.07264E+03  1.727E+00  8.909E+00  6.682E-02  1.864E+00
   1    3    7     3     3    1.4684E+00  1.9718E-01   1.2712E+00  0.000E+00  0.000E+00  0.000E+00  1.06987E+03  1.555E+00  8.218E+00  5.547E-02  1.777E+00
   1    4    8     3     4    1.2712E+00  2.2567E-01   1.0456E+00  0.000E+00  0.000E+00  0.000E+00  1.06682E+03  1.364E+00  7.455E+00  6.709E-02  1.682E+00
   1    5    8     3     5    1.0456E+00  1.5790E-01   8.8768E-01  0.000E+00  0.000E+00  0.000E+00  1.06362E+03  1.164E+00  6.655E+00  4.991E-02  1.582E+00
   1    6    8     3     6    8.8768E-01  5.5980E-02   8.3170E-01  0.000E+00  0.000E+00  0.000E+00  1.06158E+03  1.036E+00  6.145E+00  1.844E-02  1.518E+00
   1    5   10     4     1    1.0000E+01  9.0919E-02   9.9091E+00  0.000E+00  0.000E+00  0.000E+00  1.07836E+03  6.368E-01  1.000E+01  2.500E-02  1.212E+00
   1    5    9     4     2    9.9091E+00  1.8158E-01   9.7275E+00  0.000E+00  0.000E+00  0.000E+00  1.07154E+03  6.315E-01  1.000E+01  5.000E-02  1.211E+00
   1    6    8     4     3    9.7275E+00  1.2689E-01   9.6006E+00  0.000E+00  0.000E+00  0.000E+00  1.06381E+03  6.256E-01  1.000E+01  3.500E-02  1.209E+00
   1    6    8     5     1    1.0432E+01  2.2686E-01   1.0205E+01  0.000E+00  0.000E+00  0.000E+00  1.05868E+03  6.790E-01  1.542E+01  6.166E-02  1.226E+00
   1    7    7     5     2    1.0205E+01  2.7894E-01   9.9265E+00  0.000E+00  0.000E+00  0.000E+00  1.05417E+03  6.732E-01  1.519E+01  7.594E-02  1.224E+00
   1    8    7     5     3    9.9265E+00  1.9221E-01   9.7343E+00  0.000E+00  0.000E+00  0.000E+00  1.04992E+03  6.676E-01  1.497E+01  5.241E-02  1.223E+00
   1    8    6     5     4    9.7343E+00  1.3577E-01   9.5985E+00  0.000E+00  0.000E+00  0.000E+00  1.04691E+03  6.637E-01  1.482E+01  3.706E-02  1.221E+00
   1    9    6     6     1    1.8678E+01  2.4127E-01   1.8437E+01  0.000E+00  0.000E+00  0.000E+00  1.04375E+03  1.021E+00  1.200E+01  6.000E-02  1.340E+00
   1   10    7     6     2    1.8437E+01  2.4079E-01   1.8196E+01  0.000E+00  0.000E+00  0.000E+00  1.03919E+03  1.013E+00  1.200E+01  6.000E-02  1.338E+00
   1   11    7     6     3    1.8196E+01  2.4031E-01   1.7956E+01  0.000E+00  0.000E+00  0.000E+00  1.03464E+03  1.005E+00  1.200E+01  6.000E-02  1.335E+00
   1   12    7     6     4    1.7956E+01  2.3983E-01   1.7716E+01  0.000E+00  0.000E+00  0.000E+00  1.03009E+03  9.971E-01  1.200E+01  6.000E-02  1.332E+00
   1   13    7     6     5    1.7716E+01  3.7968E-03   1.7712E+01  0.000E+00  0.000E+00  0.000E+00  1.02690E+03  9.930E-01  1.200E+01  2.400E-02  5.273E-02
   1   14    9     7     1    1.5000E+02  1.3694E+00   1.4863E+02  0.000E+00  0.000E+00  0.000E+00  1.03987E+03  2.288E+00  5.529E+01  5.593E-01  8.161E-01
   1   13    8     7     2    1.4863E+02  1.9322E+00   1.4670E+02  0.000E+00  0.000E+00  0.000E+00  1.03478E+03  2.279E+00  5.525E+01  6.148E-01  1.048E+00
   1   13    7     7     3    1.4670E+02  1.6443E+00   1.4505E+02  0.000E+00  0.000E+00  0.000E+00  1.02969E+03  2.269E+00  5.521E+01  5.584E-01  9.816E-01
   1   13    6     8     1    1.6277E+02  1.0676E+00   1.6170E+02  0.000E+00  0.000E+00  0.000E+00  1.02478E+03  2.901E+00  4.206E+01  4.286E-01  8.302E-01
   1   13    5     8     2    1.6170E+02  3.3535E-01   1.6136E+02  0.000E+00  0.000E+00  0.000E+00  1.01852E+03  2.896E+00  4.199E+01  4.279E-01  2.612E-01
   1   13    4     8     3    1.6136E+02 -1.8418E+00   1.6321E+02  0.000E+00  0.000E+00  0.000E+00  1.01228E+03  2.901E+00  4.207E+01  4.287E+00 -1.432E-01
   1   13    3     8     4    1.6321E+02 -3.3931E+00   1.6660E+02  0.000E+00  0.000E+00  0.000E+00  1.00604E+03  2.919E+00  4.232E+01  4.313E+00 -2.623E-01
   1   13    2     8     5    1.6660E+02 -2.5264E+00   1.6912E+02  0.000E+00  0.000E+00  0.000E+00  9.99813E+02  2.938E+00  4.260E+01  4.342E+00 -1.940E-01
   1   13    1     8     6    1.6912E+02 -1.9662E+00   1.7109E+02  0.000E+00  0.000E+00  0.000E+00  9.94828E+02  2.953E+00  4.282E+01  2.618E+00 -2.504E-01
   1    8    6     9     1    0.0000E+00  0.0000E+00   0.0000E+00  0.000E+00  0.000E+00  0.000E+00  1.07875E+03  0.000E+00  4.000E+00  0.000E+00  1.000E+00
   1    8    5     9     2    0.0000E+00  0.0000E+00   0.0000E+00  0.000E+00  0.000E+00  0.000E+00  1.07825E+03  0.000E+00  4.000E+00  0.000E+00  1.000E+00





UNSATURATED ZONE PACKAGE VOLUMETRIC BUDGET FOR  TIME STEP    30 STRESS PERIOD   11
  ------------------------------------------------------------------------------



     CUMULATIVE VOLUMES      L**3       RATES FOR THIS TIME STEP      L**3/T
     ------------------                 ------------------------

           IN:                                      IN:
           ---                                      ---
        INFILTRATION =  3315388457.5236          INFILTRATION =           0.8475

          OUT:                                     OUT:
          ----                                     ----
              UZF ET =   426746163.0283                UZF ET =           0.8475
        UZF RECHARGE =  2338309479.3125          UZF RECHARGE =          44.2345

            IN - OUT =   550332815.1828              IN - OUT =         -44.2345

          STORAGE:                                 STORAGE:
          --------                                 --------
      STORAGE CHANGE =   550533394.8473        STORAGE CHANGE =         -44.2345

 PERCENT DISCREPANCY IS DIFFERENCE BETWEEN IN-OUT MINUS CHANGE IN STORAGE
 DIVIDED BY THE AVERAGE OF IN AND OUT TIMES 100

 PERCENT DISCREPANCY =          -0.00     PERCENT DISCREPANCY =           0.00






1
  VOLUMETRIC BUDGET FOR AGRICULTURAL FIELDS AT  END OF TIME STEP   30, STRESS PERIOD  11
  ------------------------------------------------------------------------------

     CUMULATIVE VOLUMES      L**3       RATES FOR THIS TIME STEP      L**3/T
     ------------------                 ------------------------

           IN:                                      IN:
           ---                                      ---
               AG WELLS  =  3104902144.0000                 AG WELLS  =           0.0000
      DIVERSION SEGMENTS =   188148784.0000        DIVERSION SEGMENTS =           0.0000
           GW IRRIGATION =           0.0000             GW IRRIGATION =           0.0000
           SW IRRIGATION =           0.0000             SW IRRIGATION =           0.0000
        SYSTEM LOSSES GW =           0.0000          SYSTEM LOSSES GW =           0.0000
        SYSTEM LOSSES SW =           0.0000          SYSTEM LOSSES SW =           0.0000

                TOTAL IN =  3293050880.0000                  TOTAL IN =           0.0000

          OUT:                                     OUT:
          ----                                     ----
               AG WELLS  =           0.0000                 AG WELLS  =           0.0000
      DIVERSION SEGMENTS =           0.0000        DIVERSION SEGMENTS =           0.0000
           GW IRRIGATION =  3104902144.0000             GW IRRIGATION =           0.0000
           SW IRRIGATION =   188152464.0000             SW IRRIGATION =           0.0000
        SYSTEM LOSSES GW =           0.0000          SYSTEM LOSSES GW =           0.0000
        SYSTEM LOSSES SW =           0.0000          SYSTEM LOSSES SW =           0.0000

               TOTAL OUT =  3293054720.0000                 TOTAL OUT =           0.0000

                IN - OUT =       -3840.0000                  IN - OUT =           0.0000

     PERCENT DISCREPANCY =          -0.00         PERCENT DISCREPANCY =           0.00



1
  VOLUMETRIC BUDGET FOR ENTIRE MODEL AT END OF TIME STEP   30, STRESS PERIOD  11
  ------------------------------------------------------------------------------

     CUMULATIVE VOLUMES      L**3       RATES FOR THIS TIME STEP      L**3/T
     ------------------                 ------------------------

           IN:                                      IN:
           ---                                      ---
             STORAGE     =  3255998720.0000               STORAGE     =          13.1634
       CONSTANT HEAD     =           0.0000         CONSTANT HEAD     =           0.0000
     HEAD DEP BOUNDS     =     7597134.5000       HEAD DEP BOUNDS     =           0.2880
      STREAM LEAKAGE     =   313012096.0000        STREAM LEAKAGE     =          11.7616
        UZF RECHARGE     =  2338308096.0000          UZF RECHARGE     =          44.2345
               GW ET     =           0.0000                 GW ET     =           0.0000
     SURFACE LEAKAGE     =           0.0000       SURFACE LEAKAGE     =           0.0000
           AG WELLS      =           0.0000             AG WELLS      =           0.0000

                TOTAL IN =  5914915840.0000                  TOTAL IN =          69.4475

          OUT:                                     OUT:
          ----                                     ----
             STORAGE     =  2533181440.0000               STORAGE     =          59.4251
       CONSTANT HEAD     =           0.0000         CONSTANT HEAD     =           0.0000
     HEAD DEP BOUNDS     =     7604511.0000       HEAD DEP BOUNDS     =           0.2880
      STREAM LEAKAGE     =   269204352.0000        STREAM LEAKAGE     =           9.7276
        UZF RECHARGE     =           0.0000          UZF RECHARGE     =           0.0000
               GW ET     =           0.0000                 GW ET     =           0.0000
     SURFACE LEAKAGE     =           0.0000       SURFACE LEAKAGE     =           0.0000
           AG WELLS      =  3104902144.0000             AG WELLS      =           0.0000

               TOTAL OUT =  5914892288.0000                 TOTAL OUT =          69.4407

                IN - OUT =       23552.0000                  IN - OUT =       6.8054E-03

     PERCENT DISCREPANCY =           0.00         PERCENT DISCREPANCY =           0.01






         TIME SUMMARY AT END OF TIME STEP   30 IN STRESS PERIOD   11
                    SECONDS     MINUTES      HOURS       DAYS        YEARS
                    -----------------------------------------------------------
   TIME STEP LENGTH  87667.      1461.1      24.352      1.0147     2.77799E-03
 STRESS PERIOD TIME 2.63000E+06  43833.      730.56      30.440     8.33397E-02
         TOTAL TIME 2.63864E+07 4.39773E+05  7329.5      305.40     0.83613    
1
1
                            STRESS PERIOD NO.   12, LENGTH =   2630000.    
                            -----------------------------------------------

                              NUMBER OF TIME STEPS =    30

                               MULTIPLIER FOR DELT =     1.000

                            INITIAL TIME STEP SIZE =   87666.66    

 REUSING NON-PARAMETER GHB CELLS FROM LAST STRESS PERIOD

      2 GHB CELLS

 REUSING STREAM SEGMENT DATA FROM LAST STRESS PERIOD



            AREAL INFILTRATION RATE
 READING ON UNIT   19 WITH FORMAT: (FREE)              

            1           2           3           4           5           6           7           8           9          10
 ........................................................................................................................
   1   1.0000E-10  2.0000E-10   0.000       0.000       0.000       0.000       0.000       0.000       0.000       0.000    
   2   2.0000E-10  1.0000E-10  2.0000E-10   0.000       0.000      8.0000E-10  8.0000E-10  5.0000E-10   0.000       0.000    
   3    0.000      5.0000E-10  1.0000E-10  1.0000E-10  8.0000E-10  8.0000E-10  5.0000E-10  5.0000E-10   0.000       0.000    
   4   8.0000E-10  5.0000E-10  1.0000E-10  1.0000E-10  1.0000E-10  1.0000E-10  1.0000E-10  1.0000E-10  2.0000E-10   0.000    
   5   8.0000E-10  5.0000E-10  1.0000E-10  1.0000E-10  1.0000E-10  1.0000E-10  1.0000E-10  1.0000E-10  1.0000E-10  1.0000E-10
   6   8.0000E-10  5.0000E-10  5.0000E-10  2.0000E-10  2.0000E-10  1.0000E-10  1.0000E-10  1.0000E-10  1.0000E-10  5.0000E-10
   7   8.0000E-10  5.0000E-10  5.0000E-10  2.0000E-10  2.0000E-10  1.0000E-10  1.0000E-10  2.0000E-10  2.0000E-10   0.000    
   8    0.000      5.0000E-10  5.0000E-10  2.0000E-10  2.0000E-10  1.0000E-10  1.0000E-10  2.0000E-10  5.0000E-10   0.000    
   9    0.000      5.0000E-10  5.0000E-10  2.0000E-10  2.0000E-10  1.0000E-10  1.0000E-10  2.0000E-10  5.0000E-10   0.000    
  10    0.000      5.0000E-10  5.0000E-10  2.0000E-10  2.0000E-10  1.0000E-10  1.0000E-10  2.0000E-10  5.0000E-10  8.0000E-10
  11    0.000      1.0000E-10  1.0000E-10  1.0000E-10  1.0000E-10  1.0000E-10  1.0000E-10  2.0000E-10  5.0000E-10   0.000    
  12   1.0000E-10  1.0000E-10  1.0000E-10  1.0000E-10  1.0000E-10  1.0000E-10  1.0000E-10  1.0000E-10  2.0000E-10   0.000    
  13   1.0000E-10  1.0000E-10  2.0000E-10  2.0000E-10  2.0000E-10  2.0000E-10  2.0000E-10  1.0000E-10  1.0000E-10   0.000    
  14    0.000      2.0000E-10  5.0000E-10  5.0000E-10  5.0000E-10  5.0000E-10  5.0000E-10  2.0000E-10  1.0000E-10   0.000    
  15    0.000       0.000      8.0000E-10  8.0000E-10  8.0000E-10  8.0000E-10   0.000       0.000       0.000       0.000    

                  ET RATE =  5.000000E-10

 USING ET EXTINCTION DEPTH FROM PREVIOUS STRESS PERIOD. CURRENT PERIOD IS:      12

 USING EXTINCTION WATER CONTENT FROM PREVIOUS STRESS PERIOD. CURRENT PERIOD IS:      12

 USING AIR ENTRY PRESSURE FROM PREVIOUS STRESS PERIOD. CURRENT PERIOD IS:      12

 USING ROOT PRESSURE HEAD FROM PREVIOUS STRESS PERIOD. CURRENT PERIOD IS:      12

 USING ROOT ACTIVITY FROM PREVIOUS STRESS PERIOD. CURRENT PERIOD IS:      12

 PROCESSING AG STRESS PERIOD DATA

 READING AG STRESS PERIOD DATA

 READING IRRIGATION SEGMENT

 READING IRRIGATION WELL

 READING SUPPLEMENTAL WELL

 END PROCESSING AG STRESS PERIOD DATA OPTIONS
 
 SOLVING FOR HEAD 
                                                   Max.-Head-Change                         Max.-Flux-Residual
  Residual-Control   Outer-Iter.   Inner-Iter.     Column Row Layer    Maximum-Head-Change  Column Row Layer    Maximum-Flux-Residual          L2-NORM 
          0                 1           2             4    7     1       0.8213034142E-01       4    7    1         0.4356845540E+01      0.1056523622E+02
          0                 2           2             4    7     1       0.3053514890E-01       4    7    1         0.1627766548E+01      0.2766819802E+01
          0                 3           2             4    7     1       0.1134894605E-01       4    7    1         0.6044399781E+00      0.9748080832E+00
          0                 4           2             4    7     1       0.4216782057E-02       4    7    1         0.2246815426E+00      0.3594466667E+00
          0                 5           2             4    7     1       0.1566342587E-02       4    7    1         0.8347502996E-01      0.1327037337E+00
          0                 6           2             4    7     1       0.5816769071E-03       4    7    1         0.3100547060E-01      0.4902280913E-01
          0                 7           2             4    7     1       0.2159609903E-03       4    7    1         0.1151357744E-01      0.1811757124E-01
          0                 8           1             4    7     1       0.8016330784E-04       4    7    1         0.4274473663E-02      0.6698385060E-02

    ------------------------------------------------
       NWT REQUIRED            8 OUTER ITERATIONS 
       AND A TOTAL OF         15 INNER ITERATIONS.
    ------------------------------------------------

 NO OUTPUT CONTROL FOR STRESS PERIOD   12   TIME STEP    1
 
 SOLVING FOR HEAD 
                                                   Max.-Head-Change                         Max.-Flux-Residual
  Residual-Control   Outer-Iter.   Inner-Iter.     Column Row Layer    Maximum-Head-Change  Column Row Layer    Maximum-Flux-Residual          L2-NORM 
          0                 1           2             4    7     1       0.6555781744E-01       4    7    1         0.3452763675E+01      0.1005639317E+02
          0                 2           2             4    7     1       0.2311432061E-01       4    6    1         0.1230465305E+01      0.2446698763E+01
          0                 3           2             4    6     1       0.8559596906E-02       4    6    1         0.4556043749E+00      0.8270465976E+00
          0                 4           2             4    6     1       0.3176545202E-02       4    6    1         0.1694624995E+00      0.2962267191E+00
          0                 5           2             4    6     1       0.1177039881E-02       4    6    1         0.6286022991E-01      0.1063386837E+00
          0                 6           2             4    6     1       0.4355443130E-03       4    6    1         0.2328516456E-01      0.3822164227E-01
          0                 7           2             4    6     1       0.1609680441E-03       4    6    1         0.8613833836E-02      0.1375208124E-01
          0                 8           1             4    6     1       0.5942465863E-04       4    6    1         0.3182679400E-02      0.4952665809E-02

    ------------------------------------------------
       NWT REQUIRED            8 OUTER ITERATIONS 
       AND A TOTAL OF         15 INNER ITERATIONS.
    ------------------------------------------------

 NO OUTPUT CONTROL FOR STRESS PERIOD   12   TIME STEP    2
 
 SOLVING FOR HEAD 
                                                   Max.-Head-Change                         Max.-Flux-Residual
  Residual-Control   Outer-Iter.   Inner-Iter.     Column Row Layer    Maximum-Head-Change  Column Row Layer    Maximum-Flux-Residual          L2-NORM 
          0                 1           2             3    7     1       0.6317084636E-01       4    6    1         0.3153305328E+01      0.9423215757E+01
          0                 2           2             4    6     1       0.2202296044E-01       4    6    1         0.1187672653E+01      0.2123092015E+01
          0                 3           2             4    6     1       0.8103142708E-02       4    6    1         0.4347017049E+00      0.7071876034E+00
          0                 4           2             4    6     1       0.2979992077E-02       4    6    1         0.1600851449E+00      0.2538150499E+00
          0                 5           2             4    6     1       0.1095395759E-02       4    6    1         0.5885988945E-01      0.9131504837E-01
          0                 6           2             4    6     1       0.4024683138E-03       4    6    1         0.2163402365E-01      0.3288326437E-01
          0                 7           2             4    6     1       0.1478110374E-03       4    6    1         0.7947967309E-02      0.1184997611E-01
          0                 8           1             4    6     1       0.5426329823E-04       4    6    1         0.2918717614E-02      0.4273283067E-02

    ------------------------------------------------
       NWT REQUIRED            8 OUTER ITERATIONS 
       AND A TOTAL OF         15 INNER ITERATIONS.
    ------------------------------------------------

 NO OUTPUT CONTROL FOR STRESS PERIOD   12   TIME STEP    3
 
 SOLVING FOR HEAD 
                                                   Max.-Head-Change                         Max.-Flux-Residual
  Residual-Control   Outer-Iter.   Inner-Iter.     Column Row Layer    Maximum-Head-Change  Column Row Layer    Maximum-Flux-Residual          L2-NORM 
          0                 1           2             3    7     1       0.6296006829E-01       4    6    1         0.3032053964E+01      0.9312821090E+01
          0                 2           2             4    6     1       0.2123664203E-01       4    6    1         0.1144397326E+01      0.2094575342E+01
          0                 3           2             4    6     1       0.7830363438E-02       4    6    1         0.4193066499E+00      0.6970308295E+00
          0                 4           2             4    6     1       0.2885936078E-02       4    6    1         0.1547715549E+00      0.2501226129E+00
          0                 5           2             4    6     1       0.1063008833E-02       4    6    1         0.5702823476E-01      0.8997566309E-01
          0                 6           2             4    6     1       0.3913344623E-03       4    6    1         0.2100351875E-01      0.3239905976E-01
          0                 7           2             4    6     1       0.1439908447E-03       4    6    1         0.7731297425E-02      0.1167552814E-01
          0                 8           1             4    6     1       0.5295548409E-04       4    6    1         0.2844408348E-02      0.4210648145E-02

    ------------------------------------------------
       NWT REQUIRED            8 OUTER ITERATIONS 
       AND A TOTAL OF         15 INNER ITERATIONS.
    ------------------------------------------------

 NO OUTPUT CONTROL FOR STRESS PERIOD   12   TIME STEP    4
 
 SOLVING FOR HEAD 
                                                   Max.-Head-Change                         Max.-Flux-Residual
  Residual-Control   Outer-Iter.   Inner-Iter.     Column Row Layer    Maximum-Head-Change  Column Row Layer    Maximum-Flux-Residual          L2-NORM 
          0                 1           2             3    7     1       0.6274849025E-01       4    5    1         0.3002463541E+01      0.9007160579E+01
          0                 2           2             4    7     1       0.1645708439E-01       4    7    1         0.8667813766E+00      0.1917399158E+01
          0                 3           2             4    7     1       0.5842246078E-02       4    7    1         0.3071426716E+00      0.6174289290E+00
          0                 4           2             4    7     1       0.2073068589E-02       4    7    1         0.1090677949E+00      0.2169087798E+00
          0                 5           2             4    7     1       0.7353050598E-03       4    7    1         0.3869622506E-01      0.7637125081E-01
          0                 6           2             4    7     1       0.2607076211E-03       4    7    1         0.1372416356E-01      0.2689688822E-01
          0                 7           1             4    7     1       0.9240244110E-04       4    7    1         0.4865589754E-02      0.9473091247E-02

    ------------------------------------------------
       NWT REQUIRED            7 OUTER ITERATIONS 
       AND A TOTAL OF         13 INNER ITERATIONS.
    ------------------------------------------------

 NO OUTPUT CONTROL FOR STRESS PERIOD   12   TIME STEP    5
 
 SOLVING FOR HEAD 
                                                   Max.-Head-Change                         Max.-Flux-Residual
  Residual-Control   Outer-Iter.   Inner-Iter.     Column Row Layer    Maximum-Head-Change  Column Row Layer    Maximum-Flux-Residual          L2-NORM 
          0                 1           2             3    7     1       0.6252625124E-01       4    5    1         0.2961269184E+01      0.8733607749E+01
          0                 2           2             4    7     1       0.1605676010E-01       4    7    1         0.8497583796E+00      0.1788794814E+01
          0                 3           2             4    7     1       0.5667775466E-02       4    7    1         0.2992660906E+00      0.5692592885E+00
          0                 4           2             4    7     1       0.2000727746E-02       4    7    1         0.1056808745E+00      0.1998234386E+00
          0                 5           2             4    7     1       0.7062816465E-03       4    7    1         0.3730400166E-01      0.7033199476E-01
          0                 6           2             4    7     1       0.2493315558E-03       4    7    1         0.1316893670E-01      0.2476231582E-01
          0                 7           1             4    7     1       0.8802002404E-04       4    7    1         0.4648914952E-02      0.8718717610E-02

    ------------------------------------------------
       NWT REQUIRED            7 OUTER ITERATIONS 
       AND A TOTAL OF         13 INNER ITERATIONS.
    ------------------------------------------------

 NO OUTPUT CONTROL FOR STRESS PERIOD   12   TIME STEP    6
 
 SOLVING FOR HEAD 
                                                   Max.-Head-Change                         Max.-Flux-Residual
  Residual-Control   Outer-Iter.   Inner-Iter.     Column Row Layer    Maximum-Head-Change  Column Row Layer    Maximum-Flux-Residual          L2-NORM 
          0                 1           2             3    7     1       0.6228995434E-01       4    5    1         0.2899783673E+01      0.8639255601E+01
          0                 2           2             4    7     1       0.1574024802E-01       4    7    1         0.8324667733E+00      0.1774725703E+01
          0                 3           2             4    7     1       0.5560674176E-02       4    7    1         0.2934218353E+00      0.5652962108E+00
          0                 4           2             4    7     1       0.1964449662E-02       4    7    1         0.1037026901E+00      0.1984483167E+00
          0                 5           2             4    7     1       0.6939806631E-03       4    7    1         0.3663378621E-01      0.6985033658E-01
          0                 6           2             4    7     1       0.2451563122E-03       4    7    1         0.1294163006E-01      0.2459347073E-01
          0                 7           1             4    7     1       0.8660139057E-04       4    7    1         0.4571743684E-02      0.8659504839E-02

    ------------------------------------------------
       NWT REQUIRED            7 OUTER ITERATIONS 
       AND A TOTAL OF         13 INNER ITERATIONS.
    ------------------------------------------------

 NO OUTPUT CONTROL FOR STRESS PERIOD   12   TIME STEP    7
 
 SOLVING FOR HEAD 
                                                   Max.-Head-Change                         Max.-Flux-Residual
  Residual-Control   Outer-Iter.   Inner-Iter.     Column Row Layer    Maximum-Head-Change  Column Row Layer    Maximum-Flux-Residual          L2-NORM 
          0                 1           2             3    7     1       0.6204347837E-01       6    7    1         0.2848537344E+01      0.8549009396E+01
          0                 2           2             4    7     1       0.1544800373E-01       4    7    1         0.8165265087E+00      0.1760975389E+01
          0                 3           2             4    7     1       0.5461571269E-02       4    7    1         0.2880230973E+00      0.5613829787E+00
          0                 4           2             4    7     1       0.1930807565E-02       4    7    1         0.1018713339E+00      0.1970866362E+00
          0                 5           2             4    7     1       0.6825483180E-03       4    7    1         0.3601195964E-01      0.6937242410E-01
          0                 6           2             4    7     1       0.2412672737E-03       4    7    1         0.1273026865E-01      0.2442563080E-01
          0                 7           1             4    7     1       0.8527704147E-04       4    7    1         0.4499825983E-02      0.8600545851E-02

    ------------------------------------------------
       NWT REQUIRED            7 OUTER ITERATIONS 
       AND A TOTAL OF         13 INNER ITERATIONS.
    ------------------------------------------------

 NO OUTPUT CONTROL FOR STRESS PERIOD   12   TIME STEP    8
 
 SOLVING FOR HEAD 
                                                   Max.-Head-Change                         Max.-Flux-Residual
  Residual-Control   Outer-Iter.   Inner-Iter.     Column Row Layer    Maximum-Head-Change  Column Row Layer    Maximum-Flux-Residual          L2-NORM 
          0                 1           2             3    7     1       0.6178823535E-01       6    7    1         0.2808076873E+01      0.8462498751E+01
          0                 2           2             4    7     1       0.1517736275E-01       4    7    1         0.8017889112E+00      0.1747521336E+01
          0                 3           2             4    7     1       0.5369590970E-02       4    7    1         0.2830209912E+00      0.5575039150E+00
          0                 4           2             4    7     1       0.1899513638E-02       4    7    1         0.1001707395E+00      0.1957335836E+00
          0                 5           2             4    7     1       0.6718900394E-03       4    7    1         0.3543324197E-01      0.6889680191E-01
          0                 6           2             4    7     1       0.2376333709E-03       4    7    1         0.1253311760E-01      0.2425836018E-01
          0                 7           1             4    7     1       0.8403677244E-04       4    7    1         0.4432591919E-02      0.8541711607E-02

    ------------------------------------------------
       NWT REQUIRED            7 OUTER ITERATIONS 
       AND A TOTAL OF         13 INNER ITERATIONS.
    ------------------------------------------------

 NO OUTPUT CONTROL FOR STRESS PERIOD   12   TIME STEP    9
 
 SOLVING FOR HEAD 
                                                   Max.-Head-Change                         Max.-Flux-Residual
  Residual-Control   Outer-Iter.   Inner-Iter.     Column Row Layer    Maximum-Head-Change  Column Row Layer    Maximum-Flux-Residual          L2-NORM 
          0                 1           2             3    7     1       0.6152571305E-01       6    7    1         0.2768848833E+01      0.8379457472E+01
          0                 2           2             4    7     1       0.1492602323E-01       4    7    1         0.7881253698E+00      0.1734282737E+01
          0                 3           2             4    7     1       0.5283978151E-02       4    7    1         0.2783733030E+00      0.5536477848E+00
          0                 4           2             4    7     1       0.1870320214E-02       4    7    1         0.9858705997E-01      0.1943860222E+00
          0                 5           2             4    7     1       0.6619246200E-03       4    7    1         0.3489309193E-01      0.6842256183E-01
          0                 6           2             4    7     1       0.2342279859E-03       4    7    1         0.1234868798E-01      0.2409140042E-01
          0                 7           1             4    7     1       0.8287186275E-04       4    7    1         0.4369553508E-02      0.8482930670E-02

    ------------------------------------------------
       NWT REQUIRED            7 OUTER ITERATIONS 
       AND A TOTAL OF         13 INNER ITERATIONS.
    ------------------------------------------------

 NO OUTPUT CONTROL FOR STRESS PERIOD   12   TIME STEP   10
 
 SOLVING FOR HEAD 
                                                   Max.-Head-Change                         Max.-Flux-Residual
  Residual-Control   Outer-Iter.   Inner-Iter.     Column Row Layer    Maximum-Head-Change  Column Row Layer    Maximum-Flux-Residual          L2-NORM 
          0                 1           2             3    7     1       0.6125676756E-01       6    7    1         0.2730799281E+01      0.8299494432E+01
          0                 2           2             4    7     1       0.1469185812E-01       4    7    1         0.7754173419E+00      0.1721227625E+01
          0                 3           2             4    7     1       0.5204032494E-02       4    7    1         0.2740409928E+00      0.5498048259E+00
          0                 4           2             4    7     1       0.1842996737E-02       4    7    1         0.9710744257E-01      0.1930410218E+00
          0                 5           2             4    7     1       0.6525761658E-03       4    7    1         0.3438727824E-01      0.6794882111E-01
          0                 6           2             4    7     1       0.2310261395E-03       4    7    1         0.1217558697E-01      0.2392451180E-01
          0                 7           1             4    7     1       0.8177409262E-04       4    7    1         0.4310252356E-02      0.8424133104E-02

    ------------------------------------------------
       NWT REQUIRED            7 OUTER ITERATIONS 
       AND A TOTAL OF         13 INNER ITERATIONS.
    ------------------------------------------------

 NO OUTPUT CONTROL FOR STRESS PERIOD   12   TIME STEP   11
 
 SOLVING FOR HEAD 
                                                   Max.-Head-Change                         Max.-Flux-Residual
  Residual-Control   Outer-Iter.   Inner-Iter.     Column Row Layer    Maximum-Head-Change  Column Row Layer    Maximum-Flux-Residual          L2-NORM 
          0                 1           2             3    7     1       0.6098213160E-01       6    7    1         0.2693905270E+01      0.8222366766E+01
          0                 2           2             4    7     1       0.1447294889E-01       4    7    1         0.7635577281E+00      0.1708329945E+01
          0                 3           2             4    7     1       0.5129123790E-02       4    7    1         0.2699888668E+00      0.5459699645E+00
          0                 4           2             4    7     1       0.1817336232E-02       4    7    1         0.9572032750E-01      0.1916972596E+00
          0                 5           2             4    7     1       0.6437767187E-03       4    7    1         0.3391200455E-01      0.6747522912E-01
          0                 6           2             4    7     1       0.2280055253E-03       4    7    1         0.1201256815E-01      0.2375756128E-01
          0                 7           1             4    7     1       0.8073614142E-04       4    7    1         0.4254279336E-02      0.8365284811E-02

    ------------------------------------------------
       NWT REQUIRED            7 OUTER ITERATIONS 
       AND A TOTAL OF         13 INNER ITERATIONS.
    ------------------------------------------------

 NO OUTPUT CONTROL FOR STRESS PERIOD   12   TIME STEP   12
 
 SOLVING FOR HEAD 
                                                   Max.-Head-Change                         Max.-Flux-Residual
  Residual-Control   Outer-Iter.   Inner-Iter.     Column Row Layer    Maximum-Head-Change  Column Row Layer    Maximum-Flux-Residual          L2-NORM 
          0                 1           2             3    7     1       0.6070314993E-01       6    7    1         0.2658108304E+01      0.8147846389E+01
          0                 2           2             4    7     1       0.1426768608E-01       4    7    1         0.7524567866E+00      0.1695566638E+01
          0                 3           2             4    7     1       0.5058722657E-02       4    7    1         0.2661873900E+00      0.5421387317E+00
          0                 4           2             4    7     1       0.1794441204E-02       4    7    1         0.9446347873E-01      0.1903567059E+00
          0                 5           2             4    7     1       0.6360912823E-03       4    7    1         0.3348987420E-01      0.6700349023E-01
          0                 6           2             4    7     1       0.2254277410E-03       4    7    1         0.1187089015E-01      0.2359158235E-01
          0                 7           1             4    7     1       0.7987230927E-04       4    7    1         0.4206767959E-02      0.8306913349E-02

    ------------------------------------------------
       NWT REQUIRED            7 OUTER ITERATIONS 
       AND A TOTAL OF         13 INNER ITERATIONS.
    ------------------------------------------------

 NO OUTPUT CONTROL FOR STRESS PERIOD   12   TIME STEP   13
 
 SOLVING FOR HEAD 
                                                   Max.-Head-Change                         Max.-Flux-Residual
  Residual-Control   Outer-Iter.   Inner-Iter.     Column Row Layer    Maximum-Head-Change  Column Row Layer    Maximum-Flux-Residual          L2-NORM 
          0                 1           2             3    7     1       0.6042020524E-01       6    7    1         0.2623371831E+01      0.8075733915E+01
          0                 2           2             4    7     1       0.1408127073E-01       4    7    1         0.7422425861E+00      0.1682936303E+01
          0                 3           2             4    7     1       0.4995935248E-02       4    7    1         0.2627481961E+00      0.5383202012E+00
          0                 4           2             4    7     1       0.1772031940E-02       4    7    1         0.9325762177E-01      0.1890154928E+00
          0                 5           2             4    7     1       0.6283620454E-03       4    7    1         0.3307426772E-01      0.6653051855E-01
          0                 6           2             4    7     1       0.2227593823E-03       4    7    1         0.1172751179E-01      0.2342476200E-01
          0                 7           1             4    7     1       0.7895028854E-04       4    7    1         0.4157259401E-02      0.8248081939E-02

    ------------------------------------------------
       NWT REQUIRED            7 OUTER ITERATIONS 
       AND A TOTAL OF         13 INNER ITERATIONS.
    ------------------------------------------------

 NO OUTPUT CONTROL FOR STRESS PERIOD   12   TIME STEP   14
 
 SOLVING FOR HEAD 
                                                   Max.-Head-Change                         Max.-Flux-Residual
  Residual-Control   Outer-Iter.   Inner-Iter.     Column Row Layer    Maximum-Head-Change  Column Row Layer    Maximum-Flux-Residual          L2-NORM 
          0                 1           2             3    7     1       0.6013433097E-01       6    7    1         0.2589640263E+01      0.8005875305E+01
          0                 2           2             4    7     1       0.1390284348E-01       4    7    1         0.7326368825E+00      0.1670443822E+01
          0                 3           2             4    7     1       0.4934373177E-02       4    7    1         0.2594392890E+00      0.5344984337E+00
          0                 4           2             4    7     1       0.1750771740E-02       4    7    1         0.9211553352E-01      0.1876732627E+00
          0                 5           2             4    7     1       0.6210133098E-03       4    7    1         0.3267977824E-01      0.6605711133E-01
          0                 6           2             4    7     1       0.2202170155E-03       4    7    1         0.1159112603E-01      0.2325776406E-01
          0                 7           1             4    7     1       0.7806998408E-04       4    7    1         0.4110066229E-02      0.8189179962E-02

    ------------------------------------------------
       NWT REQUIRED            7 OUTER ITERATIONS 
       AND A TOTAL OF         13 INNER ITERATIONS.
    ------------------------------------------------

 NO OUTPUT CONTROL FOR STRESS PERIOD   12   TIME STEP   15
 
 SOLVING FOR HEAD 
                                                   Max.-Head-Change                         Max.-Flux-Residual
  Residual-Control   Outer-Iter.   Inner-Iter.     Column Row Layer    Maximum-Head-Change  Column Row Layer    Maximum-Flux-Residual          L2-NORM 
          0                 1           2             3    7     1       0.5984604295E-01       6    7    1         0.2556885476E+01      0.7938047660E+01
          0                 2           2             4    7     1       0.1373364928E-01       4    7    1         0.7235429425E+00      0.1657992996E+01
          0                 3           2             4    7     1       0.4875873073E-02       4    7    1         0.2563001240E+00      0.5306774759E+00
          0                 4           2             4    7     1       0.1730527009E-02       4    7    1         0.9102973560E-01      0.1863310135E+00
          0                 5           2             4    7     1       0.6140013476E-03       4    7    1         0.3230395705E-01      0.6558365963E-01
          0                 6           2             4    7     1       0.2177863373E-03       4    7    1         0.1146093150E-01      0.2309073825E-01
          0                 7           1             4    7     1       0.7722671957E-04       4    7    1         0.4064926327E-02      0.8130263991E-02

    ------------------------------------------------
       NWT REQUIRED            7 OUTER ITERATIONS 
       AND A TOTAL OF         13 INNER ITERATIONS.
    ------------------------------------------------

 NO OUTPUT CONTROL FOR STRESS PERIOD   12   TIME STEP   16
 
 SOLVING FOR HEAD 
                                                   Max.-Head-Change                         Max.-Flux-Residual
  Residual-Control   Outer-Iter.   Inner-Iter.     Column Row Layer    Maximum-Head-Change  Column Row Layer    Maximum-Flux-Residual          L2-NORM 
          0                 1           2             3    7     1       0.5955559225E-01       6    7    1         0.2525072613E+01      0.7872111343E+01
          0                 2           2             4    7     1       0.1357275252E-01       4    7    1         0.7149087238E+00      0.1645662209E+01
          0                 3           2             4    7     1       0.4820126151E-02       4    7    1         0.2533135193E+00      0.5268579081E+00
          0                 4           2             4    7     1       0.1711195861E-02       4    7    1         0.8999455778E-01      0.1849886256E+00
          0                 5           2             4    7     1       0.6072925494E-03       4    7    1         0.3194493331E-01      0.6511014954E-01
          0                 6           2             4    7     1       0.2154562648E-03       4    7    1         0.1133631112E-01      0.2292368942E-01
          0                 7           1             4    7     1       0.7641684213E-04       4    7    1         0.4021636227E-02      0.8071338851E-02

    ------------------------------------------------
       NWT REQUIRED            7 OUTER ITERATIONS 
       AND A TOTAL OF         13 INNER ITERATIONS.
    ------------------------------------------------

 NO OUTPUT CONTROL FOR STRESS PERIOD   12   TIME STEP   17
 
 SOLVING FOR HEAD 
                                                   Max.-Head-Change                         Max.-Flux-Residual
  Residual-Control   Outer-Iter.   Inner-Iter.     Column Row Layer    Maximum-Head-Change  Column Row Layer    Maximum-Flux-Residual          L2-NORM 
          0                 1           2             3    7     1       0.5926365851E-01       6    7    1         0.2494167041E+01      0.7807997974E+01
          0                 2           2             4    7     1       0.1341928552E-01       4    7    1         0.7066858234E+00      0.1633423528E+01
          0                 3           2             4    7     1       0.4766847239E-02       4    7    1         0.2504635545E+00      0.5230412218E+00
          0                 4           2             4    7     1       0.1692684614E-02       4    7    1         0.8900476871E-01      0.1836468655E+00
          0                 5           2             4    7     1       0.6008561579E-03       4    7    1         0.3160098866E-01      0.6463687147E-01
          0                 6           2             4    7     1       0.2132167044E-03       4    7    1         0.1121670073E-01      0.2275672634E-01
          0                 7           1             4    7     1       0.7563704116E-04       4    7    1         0.3980010823E-02      0.8012446527E-02

    ------------------------------------------------
       NWT REQUIRED            7 OUTER ITERATIONS 
       AND A TOTAL OF         13 INNER ITERATIONS.
    ------------------------------------------------

 NO OUTPUT CONTROL FOR STRESS PERIOD   12   TIME STEP   18
 
 SOLVING FOR HEAD 
                                                   Max.-Head-Change                         Max.-Flux-Residual
  Residual-Control   Outer-Iter.   Inner-Iter.     Column Row Layer    Maximum-Head-Change  Column Row Layer    Maximum-Flux-Residual          L2-NORM 
          0                 1           2             3    7     1       0.5897062150E-01       6    7    1         0.2464135813E+01      0.7745585876E+01
          0                 2           2             4    7     1       0.1327252083E-01       4    7    1         0.6988337574E+00      0.1621275511E+01
          0                 3           2             4    7     1       0.4715796487E-02       4    7    1         0.2477368724E+00      0.5192292883E+00
          0                 4           2             4    7     1       0.1674914232E-02       4    7    1         0.8805596510E-01      0.1823064737E+00
          0                 5           2             4    7     1       0.5946661424E-03       4    7    1         0.3127067225E-01      0.6416410006E-01
          0                 6           2             4    7     1       0.2110590899E-03       4    7    1         0.1110162261E-01      0.2258995013E-01
          0                 7           1             4    7     1       0.7488449993E-04       4    7    1         0.3939892930E-02      0.7953619444E-02

    ------------------------------------------------
       NWT REQUIRED            7 OUTER ITERATIONS 
       AND A TOTAL OF         13 INNER ITERATIONS.
    ------------------------------------------------

 NO OUTPUT CONTROL FOR STRESS PERIOD   12   TIME STEP   19
 
 SOLVING FOR HEAD 
                                                   Max.-Head-Change                         Max.-Flux-Residual
  Residual-Control   Outer-Iter.   Inner-Iter.     Column Row Layer    Maximum-Head-Change  Column Row Layer    Maximum-Flux-Residual          L2-NORM 
          0                 1           2             3    7     1       0.5867657497E-01       6    7    1         0.2434953484E+01      0.7684796978E+01
          0                 2           2             4    7     1       0.1313177178E-01       4    7    1         0.6913142803E+00      0.1609263160E+01
          0                 3           2             4    7     1       0.4666747638E-02       4    7    1         0.2451208677E+00      0.5154237518E+00
          0                 4           2             4    7     1       0.1657810178E-02       4    7    1         0.8714399378E-01      0.1809678815E+00
          0                 5           2             4    7     1       0.5886979547E-03       4    7    1         0.3095261594E-01      0.6369199393E-01
          0                 6           2             4    7     1       0.2089753384E-03       4    7    1         0.1099062620E-01      0.2242341969E-01
          0                 7           1             4    7     1       0.7415655811E-04       4    7    1         0.3901134202E-02      0.7894883898E-02

    ------------------------------------------------
       NWT REQUIRED            7 OUTER ITERATIONS 
       AND A TOTAL OF         13 INNER ITERATIONS.
    ------------------------------------------------

 NO OUTPUT CONTROL FOR STRESS PERIOD   12   TIME STEP   20
 
 SOLVING FOR HEAD 
                                                   Max.-Head-Change                         Max.-Flux-Residual
  Residual-Control   Outer-Iter.   Inner-Iter.     Column Row Layer    Maximum-Head-Change  Column Row Layer    Maximum-Flux-Residual          L2-NORM 
          0                 1           2             3    7     1       0.5838206361E-01       6    7    1         0.2406588471E+01      0.7625451899E+01
          0                 2           2             4    7     1       0.1299646869E-01       4    7    1         0.6840957025E+00      0.1597240456E+01
          0                 3           2             4    7     1       0.4619512796E-02       4    7    1         0.2426050790E+00      0.5116235470E+00
          0                 4           2             4    7     1       0.1641310506E-02       4    7    1         0.8626540500E-01      0.1796313883E+00
          0                 5           2             4    7     1       0.5829311839E-03       4    7    1         0.3064568258E-01      0.6322067819E-01
          0                 6           2             4    7     1       0.2069587284E-03       4    7    1         0.1088333685E-01      0.2225718271E-01
          0                 7           1             4    7     1       0.7345100349E-04       4    7    1         0.3863611287E-02      0.7836256421E-02

    ------------------------------------------------
       NWT REQUIRED            7 OUTER ITERATIONS 
       AND A TOTAL OF         13 INNER ITERATIONS.
    ------------------------------------------------

 NO OUTPUT CONTROL FOR STRESS PERIOD   12   TIME STEP   21
 
 SOLVING FOR HEAD 
                                                   Max.-Head-Change                         Max.-Flux-Residual
  Residual-Control   Outer-Iter.   Inner-Iter.     Column Row Layer    Maximum-Head-Change  Column Row Layer    Maximum-Flux-Residual          L2-NORM 
          0                 1           2             3    7     1       0.5808710406E-01       6    7    1         0.2379009452E+01      0.7567421376E+01
          0                 2           2             4    7     1       0.1286611439E-01       4    7    1         0.6771502426E+00      0.1585351165E+01
          0                 3           2             4    7     1       0.4573928914E-02       4    7    1         0.2401803884E+00      0.5078347161E+00
          0                 4           2             4    7     1       0.1625361807E-02       4    7    1         0.8541720932E-01      0.1782985756E+00
          0                 5           2             4    7     1       0.5773483539E-03       4    7    1         0.3034889310E-01      0.6275070049E-01
          0                 6           2             4    7     1       0.2050035501E-03       4    7    1         0.1077943430E-01      0.2209143191E-01
          0                 7           1             4    7     1       0.7276597248E-04       4    7    1         0.3827219555E-02      0.7777804783E-02

    ------------------------------------------------
       NWT REQUIRED            7 OUTER ITERATIONS 
       AND A TOTAL OF         13 INNER ITERATIONS.
    ------------------------------------------------

 NO OUTPUT CONTROL FOR STRESS PERIOD   12   TIME STEP   22
 
 SOLVING FOR HEAD 
                                                   Max.-Head-Change                         Max.-Flux-Residual
  Residual-Control   Outer-Iter.   Inner-Iter.     Column Row Layer    Maximum-Head-Change  Column Row Layer    Maximum-Flux-Residual          L2-NORM 
          0                 1           2             3    7     1       0.5779206284E-01       6    7    1         0.2352186433E+01      0.7362836697E+01
          0                 2           2             4    7     1       0.1272851170E-01       4    7    1         0.6702218067E+00      0.1471499052E+01
          0                 3           2             4    7     1       0.4521050862E-02       4    7    1         0.2375805483E+00      0.4630661951E+00
          0                 4           2             4    7     1       0.1604614486E-02       4    7    1         0.8441199711E-01      0.1617520235E+00
          0                 5           2             4    7     1       0.5691089284E-03       4    7    1         0.2995298733E-01      0.5668554888E-01
          0                 6           2             4    7     1       0.2017138221E-03       4    7    1         0.1062187840E-01      0.1987307692E-01
          0                 7           1             4    7     1       0.7145160918E-04       4    7    1         0.3764261140E-02      0.6968108979E-02

    ------------------------------------------------
       NWT REQUIRED            7 OUTER ITERATIONS 
       AND A TOTAL OF         13 INNER ITERATIONS.
    ------------------------------------------------

 NO OUTPUT CONTROL FOR STRESS PERIOD   12   TIME STEP   23
 
 SOLVING FOR HEAD 
                                                   Max.-Head-Change                         Max.-Flux-Residual
  Residual-Control   Outer-Iter.   Inner-Iter.     Column Row Layer    Maximum-Head-Change  Column Row Layer    Maximum-Flux-Residual          L2-NORM 
          0                 1           2             3    7     1       0.5749608916E-01       6    7    1         0.2324915404E+01      0.7354531891E+01
          0                 2           2             4    7     1       0.1257654473E-01       4    7    1         0.6626745442E+00      0.1463800450E+01
          0                 3           2             4    7     1       0.4462695963E-02       4    7    1         0.2346988878E+00      0.4556849623E+00
          0                 4           2             4    7     1       0.1582210317E-02       4    7    1         0.8330392135E-01      0.1579183679E+00
          0                 5           2             4    7     1       0.5605480204E-03       4    7    1         0.2952772420E-01      0.5511059828E-01
          0                 6           2             4    7     1       0.1984648953E-03       4    7    1         0.1045956609E-01      0.1927928764E-01
          0                 7           1             4    7     1       0.7022788563E-04       4    7    1         0.3702754593E-02      0.6753347196E-02

    ------------------------------------------------
       NWT REQUIRED            7 OUTER ITERATIONS 
       AND A TOTAL OF         13 INNER ITERATIONS.
    ------------------------------------------------

 NO OUTPUT CONTROL FOR STRESS PERIOD   12   TIME STEP   24
 
 SOLVING FOR HEAD 
                                                   Max.-Head-Change                         Max.-Flux-Residual
  Residual-Control   Outer-Iter.   Inner-Iter.     Column Row Layer    Maximum-Head-Change  Column Row Layer    Maximum-Flux-Residual          L2-NORM 
          0                 1           2             3    7     1       0.5719886715E-01       6    7    1         0.2296126736E+01      0.7218988326E+01
          0                 2           2             4    7     1       0.1241744769E-01       4    7    1         0.6546274360E+00      0.1427699586E+01
          0                 3           2             4    7     1       0.4403795932E-02       4    7    1         0.2316966126E+00      0.4450661502E+00
          0                 4           2             4    7     1       0.1560598808E-02       4    7    1         0.8219486486E-01      0.1546518351E+00
          0                 5           2             4    7     1       0.5526721804E-03       4    7    1         0.2912152551E-01      0.5405860478E-01
          0                 6           2             4    7     1       0.1956099050E-03       4    7    1         0.1031173912E-01      0.1892979355E-01
          0                 7           1             4    7     1       0.6919730545E-04       4    7    1         0.3649225331E-02      0.6634841385E-02

    ------------------------------------------------
       NWT REQUIRED            7 OUTER ITERATIONS 
       AND A TOTAL OF         13 INNER ITERATIONS.
    ------------------------------------------------

 NO OUTPUT CONTROL FOR STRESS PERIOD   12   TIME STEP   25
 
 SOLVING FOR HEAD 
                                                   Max.-Head-Change                         Max.-Flux-Residual
  Residual-Control   Outer-Iter.   Inner-Iter.     Column Row Layer    Maximum-Head-Change  Column Row Layer    Maximum-Flux-Residual          L2-NORM 
          0                 1           2             3    7     1       0.5690012128E-01       6    7    1         0.2266300506E+01      0.7099944736E+01
          0                 2           2             4    7     1       0.1225477888E-01       4    7    1         0.6462678200E+00      0.1398419743E+01
          0                 3           2             4    7     1       0.4344604940E-02       4    7    1         0.2286401285E+00      0.4363760878E+00
          0                 4           2             4    7     1       0.1539190146E-02       4    7    1         0.8108426795E-01      0.1519249311E+00
          0                 5           2             4    7     1       0.5449646924E-03       4    7    1         0.2872033443E-01      0.5316707999E-01
          0                 6           2             4    7     1       0.1928451044E-03       4    7    1         0.1016743958E-01      0.1863052490E-01
          0                 7           1             4    7     1       0.6820836789E-04       4    7    1         0.3597501318E-02      0.6532644437E-02

    ------------------------------------------------
       NWT REQUIRED            7 OUTER ITERATIONS 
       AND A TOTAL OF         13 INNER ITERATIONS.
    ------------------------------------------------

 NO OUTPUT CONTROL FOR STRESS PERIOD   12   TIME STEP   26
 
 SOLVING FOR HEAD 
                                                   Max.-Head-Change                         Max.-Flux-Residual
  Residual-Control   Outer-Iter.   Inner-Iter.     Column Row Layer    Maximum-Head-Change  Column Row Layer    Maximum-Flux-Residual          L2-NORM 
          0                 1           2             3    7     1       0.5659947262E-01       6    7    1         0.2235820258E+01      0.6993926460E+01
          0                 2           2             4    7     1       0.1209032483E-01       4    7    1         0.6377512459E+00      0.1373042066E+01
          0                 3           2             4    7     1       0.4285270990E-02       4    7    1         0.2255566250E+00      0.4287356518E+00
          0                 4           2             4    7     1       0.1517883173E-02       4    7    1         0.7997295290E-01      0.1494813014E+00
          0                 5           2             4    7     1       0.5373408515E-03       4    7    1         0.2832164834E-01      0.5235727488E-01
          0                 6           2             4    7     1       0.1901248643E-03       4    7    1         0.1002489101E-01      0.1835618463E-01
          0                 7           1             4    7     1       0.6723991954E-04       4    7    1         0.3546668415E-02      0.6438505300E-02

    ------------------------------------------------
       NWT REQUIRED            7 OUTER ITERATIONS 
       AND A TOTAL OF         13 INNER ITERATIONS.
    ------------------------------------------------

 NO OUTPUT CONTROL FOR STRESS PERIOD   12   TIME STEP   27
 
 SOLVING FOR HEAD 
                                                   Max.-Head-Change                         Max.-Flux-Residual
  Residual-Control   Outer-Iter.   Inner-Iter.     Column Row Layer    Maximum-Head-Change  Column Row Layer    Maximum-Flux-Residual          L2-NORM 
          0                 1           2             3    7     1       0.5629687266E-01       6    7    1         0.2205007556E+01      0.6898706670E+01
          0                 2           2             4    7     1       0.1192582449E-01       4    7    1         0.6291813511E+00      0.1350867748E+01
          0                 3           2             4    7     1       0.4226314865E-02       4    7    1         0.2224773461E+00      0.4219634982E+00
          0                 4           2             4    7     1       0.1496832147E-02       4    7    1         0.7887025608E-01      0.1472748047E+00
          0                 5           2             4    7     1       0.5298456386E-03       4    7    1         0.2792822453E-01      0.5161660344E-01
          0                 6           2             4    7     1       0.1874620405E-03       4    7    1         0.9884893906E-02      0.1810336929E-01
          0                 7           1             4    7     1       0.6629555927E-04       4    7    1         0.3496954189E-02      0.6351430538E-02

    ------------------------------------------------
       NWT REQUIRED            7 OUTER ITERATIONS 
       AND A TOTAL OF         13 INNER ITERATIONS.
    ------------------------------------------------

 NO OUTPUT CONTROL FOR STRESS PERIOD   12   TIME STEP   28
 
 SOLVING FOR HEAD 
                                                   Max.-Head-Change                         Max.-Flux-Residual
  Residual-Control   Outer-Iter.   Inner-Iter.     Column Row Layer    Maximum-Head-Change  Column Row Layer    Maximum-Flux-Residual          L2-NORM 
          0                 1           2             3    7     1       0.5599259342E-01       6    7    1         0.2174124612E+01      0.6812472636E+01
          0                 2           2             4    7     1       0.1176255357E-01       4    7    1         0.6206352418E+00      0.1331321168E+01
          0                 3           2             4    7     1       0.4168110307E-02       4    7    1         0.2194251052E+00      0.4159099336E+00
          0                 4           2             4    7     1       0.1476144496E-02       4    7    1         0.7778283869E-01      0.1452667776E+00
          0                 5           2             4    7     1       0.5225092166E-03       4    7    1         0.2754196736E-01      0.5093550773E-01
          0                 6           2             4    7     1       0.1848649616E-03       4    7    1         0.9747979572E-02      0.1786978424E-01
          0                 7           1             4    7     1       0.6537750355E-04       4    7    1         0.3448504772E-02      0.6270703462E-02

    ------------------------------------------------
       NWT REQUIRED            7 OUTER ITERATIONS 
       AND A TOTAL OF         13 INNER ITERATIONS.
    ------------------------------------------------

 NO OUTPUT CONTROL FOR STRESS PERIOD   12   TIME STEP   29
 
 SOLVING FOR HEAD 
                                                   Max.-Head-Change                         Max.-Flux-Residual
  Residual-Control   Outer-Iter.   Inner-Iter.     Column Row Layer    Maximum-Head-Change  Column Row Layer    Maximum-Flux-Residual          L2-NORM 
          0                 1           2             3    7     1       0.5567862621E-01       6    7    1         0.2142780381E+01      0.6665076206E+01
          0                 2           2             4    7     1       0.1112415496E-01       4    7    1         0.5970025865E+00      0.1232085880E+01
          0                 3           2             4    7     1       0.3865721066E-02       4    7    1         0.2065127317E+00      0.3714875682E+00
          0                 4           2             4    7     1       0.1345846797E-02       4    7    1         0.7183875018E-01      0.1278032224E+00
          0                 5           2             4    7     1       0.4692266048E-03       4    7    1         0.2501871746E-01      0.4435208605E-01
          0                 6           2             4    7     1       0.1637757070E-03       4    7    1         0.8725316648E-02      0.1543458334E-01
          0                 7           1             4    7     1       0.5721164523E-04       4    7    1         0.3046128612E-02      0.5379790149E-02

    ------------------------------------------------
       NWT REQUIRED            7 OUTER ITERATIONS 
       AND A TOTAL OF         13 INNER ITERATIONS.
    ------------------------------------------------

 NO OUTPUT CONTROL FOR STRESS PERIOD   12   TIME STEP   30



 STREAM LISTING     PERIOD     12   STEP       30

 LAYER ROW COL. STREAM  RCH.  FLOW INTO     FLOW TO   FLOW OUT OF   OVRLND.     DIRECT     STREAM       STREAM     STREAM     STREAM   STREAMBED  STREAMBED
                SEG.NO.  NO.  STRM. RCH.    AQUIFER    STRM. RCH.    RUNOFF     PRECIP       ET          HEAD       DEPTH      WIDTH   CONDCTNC.   GRADIENT

   1    1    1     1     1    9.5403E+00  1.4421E-01   9.3961E+00  0.000E+00  0.000E+00  0.000E+00  1.09393E+03  8.839E-01  8.251E+00  3.713E-02  1.295E+00
   1    2    2     1     2    9.3961E+00  2.2163E-01   9.1745E+00  0.000E+00  0.000E+00  0.000E+00  1.08894E+03  8.782E-01  8.164E+00  5.715E-02  1.293E+00
   1    3    3     1     3    9.1745E+00  1.8736E-01   8.9871E+00  0.000E+00  0.000E+00  0.000E+00  1.08329E+03  8.718E-01  8.065E+00  4.839E-02  1.291E+00
   1    3    4     1     4    8.9871E+00  1.7119E-01   8.8160E+00  0.000E+00  0.000E+00  0.000E+00  1.07827E+03  8.661E-01  7.978E+00  4.428E-02  1.289E+00
   1    4    5     2     1    6.8160E+00  2.7666E-01   6.5393E+00  0.000E+00  0.000E+00  0.000E+00  1.07248E+03  5.469E-01  1.200E+01  7.800E-02  1.182E+00
   1    5    6     2     2    6.5393E+00  2.1209E-01   6.3272E+00  0.000E+00  0.000E+00  0.000E+00  1.06704E+03  5.348E-01  1.200E+01  6.000E-02  1.178E+00
   1    6    6     2     3    6.3272E+00  2.1145E-01   6.1158E+00  0.000E+00  0.000E+00  0.000E+00  1.06232E+03  5.242E-01  1.200E+01  6.000E-02  1.175E+00
   1    7    6     2     4    6.1158E+00  2.1081E-01   5.9050E+00  0.000E+00  0.000E+00  0.000E+00  1.05759E+03  5.134E-01  1.200E+01  6.000E-02  1.171E+00
   1    8    6     2     5    5.9050E+00  2.1015E-01   5.6948E+00  0.000E+00  0.000E+00  0.000E+00  1.05286E+03  5.026E-01  1.200E+01  6.000E-02  1.168E+00
   1    3    5     3     1    2.0000E+00  2.8252E-01   1.7175E+00  0.000E+00  0.000E+00  0.000E+00  1.07555E+03  1.909E+00  9.636E+00  7.227E-02  1.955E+00
   1    3    6     3     2    1.7175E+00  2.4905E-01   1.4684E+00  0.000E+00  0.000E+00  0.000E+00  1.07264E+03  1.727E+00  8.909E+00  6.682E-02  1.864E+00
   1    3    7     3     3    1.4684E+00  1.9718E-01   1.2712E+00  0.000E+00  0.000E+00  0.000E+00  1.06987E+03  1.555E+00  8.218E+00  5.547E-02  1.777E+00
   1    4    8     3     4    1.2712E+00  2.2567E-01   1.0456E+00  0.000E+00  0.000E+00  0.000E+00  1.06682E+03  1.364E+00  7.455E+00  6.709E-02  1.682E+00
   1    5    8     3     5    1.0456E+00  1.5790E-01   8.8768E-01  0.000E+00  0.000E+00  0.000E+00  1.06362E+03  1.164E+00  6.655E+00  4.991E-02  1.582E+00
   1    6    8     3     6    8.8768E-01  5.5980E-02   8.3170E-01  0.000E+00  0.000E+00  0.000E+00  1.06158E+03  1.036E+00  6.145E+00  1.844E-02  1.518E+00
   1    5   10     4     1    1.0000E+01  9.0919E-02   9.9091E+00  0.000E+00  0.000E+00  0.000E+00  1.07836E+03  6.368E-01  1.000E+01  2.500E-02  1.212E+00
   1    5    9     4     2    9.9091E+00  1.8158E-01   9.7275E+00  0.000E+00  0.000E+00  0.000E+00  1.07154E+03  6.315E-01  1.000E+01  5.000E-02  1.211E+00
   1    6    8     4     3    9.7275E+00  1.2689E-01   9.6006E+00  0.000E+00  0.000E+00  0.000E+00  1.06381E+03  6.256E-01  1.000E+01  3.500E-02  1.209E+00
   1    6    8     5     1    1.0432E+01  2.2686E-01   1.0205E+01  0.000E+00  0.000E+00  0.000E+00  1.05868E+03  6.790E-01  1.542E+01  6.166E-02  1.226E+00
   1    7    7     5     2    1.0205E+01  2.7894E-01   9.9265E+00  0.000E+00  0.000E+00  0.000E+00  1.05417E+03  6.732E-01  1.519E+01  7.594E-02  1.224E+00
   1    8    7     5     3    9.9265E+00  1.9221E-01   9.7343E+00  0.000E+00  0.000E+00  0.000E+00  1.04992E+03  6.676E-01  1.497E+01  5.241E-02  1.223E+00
   1    8    6     5     4    9.7343E+00  1.3577E-01   9.5985E+00  0.000E+00  0.000E+00  0.000E+00  1.04691E+03  6.637E-01  1.482E+01  3.706E-02  1.221E+00
   1    9    6     6     1    1.5293E+01  2.3430E-01   1.5059E+01  0.000E+00  0.000E+00  0.000E+00  1.04363E+03  9.050E-01  1.200E+01  6.000E-02  1.302E+00
   1   10    7     6     2    1.5059E+01  2.3380E-01   1.4825E+01  0.000E+00  0.000E+00  0.000E+00  1.03908E+03  8.966E-01  1.200E+01  6.000E-02  1.299E+00
   1   11    7     6     3    1.4825E+01  2.3329E-01   1.4592E+01  0.000E+00  0.000E+00  0.000E+00  1.03452E+03  8.882E-01  1.200E+01  6.000E-02  1.296E+00
   1   12    7     6     4    1.4592E+01  2.3278E-01   1.4359E+01  0.000E+00  0.000E+00  0.000E+00  1.02997E+03  8.797E-01  1.200E+01  6.000E-02  1.293E+00
   1   13    7     6     5    1.4359E+01  2.1457E-03   1.4357E+01  0.000E+00  0.000E+00  0.000E+00  1.02678E+03  8.754E-01  1.200E+01  2.400E-02  2.980E-02
   1   14    9     7     1    1.5000E+02  1.3701E+00   1.4863E+02  0.000E+00  0.000E+00  0.000E+00  1.03987E+03  2.288E+00  5.529E+01  5.593E-01  8.165E-01
   1   13    8     7     2    1.4863E+02  1.9415E+00   1.4669E+02  0.000E+00  0.000E+00  0.000E+00  1.03478E+03  2.279E+00  5.525E+01  6.147E-01  1.053E+00
   1   13    7     7     3    1.4669E+02  1.6715E+00   1.4502E+02  0.000E+00  0.000E+00  0.000E+00  1.02969E+03  2.269E+00  5.521E+01  5.584E-01  9.978E-01
   1   13    6     8     1    1.5937E+02  1.0802E+00   1.5829E+02  0.000E+00  0.000E+00  0.000E+00  1.02475E+03  2.878E+00  4.173E+01  4.252E-01  8.468E-01
   1   13    5     8     2    1.5829E+02  3.5213E-01   1.5794E+02  0.000E+00  0.000E+00  0.000E+00  1.01850E+03  2.873E+00  4.166E+01  4.245E-01  2.765E-01
   1   13    4     8     3    1.5794E+02 -1.7800E+00   1.5972E+02  0.000E+00  0.000E+00  0.000E+00  1.01225E+03  2.878E+00  4.173E+01  4.252E+00 -1.395E-01
   1   13    3     8     4    1.5972E+02 -3.3634E+00   1.6309E+02  0.000E+00  0.000E+00  0.000E+00  1.00602E+03  2.895E+00  4.198E+01  4.278E+00 -2.621E-01
   1   13    2     8     5    1.6309E+02 -2.5336E+00   1.6562E+02  0.000E+00  0.000E+00  0.000E+00  9.99790E+02  2.915E+00  4.227E+01  4.307E+00 -1.961E-01
   1   13    1     8     6    1.6562E+02 -1.9794E+00   1.6760E+02  0.000E+00  0.000E+00  0.000E+00  9.94805E+02  2.930E+00  4.248E+01  2.598E+00 -2.540E-01
   1    8    6     9     1    0.0000E+00  0.0000E+00   0.0000E+00  0.000E+00  0.000E+00  0.000E+00  1.07875E+03  0.000E+00  4.000E+00  0.000E+00  1.000E+00
   1    8    5     9     2    0.0000E+00  0.0000E+00   0.0000E+00  0.000E+00  0.000E+00  0.000E+00  1.07825E+03  0.000E+00  4.000E+00  0.000E+00  1.000E+00





UNSATURATED ZONE PACKAGE VOLUMETRIC BUDGET FOR  TIME STEP    30 STRESS PERIOD   12
  ------------------------------------------------------------------------------



     CUMULATIVE VOLUMES      L**3       RATES FOR THIS TIME STEP      L**3/T
     ------------------                 ------------------------

           IN:                                      IN:
           ---                                      ---
        INFILTRATION =  3317617382.3963          INFILTRATION =           0.8475

          OUT:                                     OUT:
          ----                                     ----
              UZF ET =   428718663.4471                UZF ET =           0.7500
        UZF RECHARGE =  2415591006.0312          UZF RECHARGE =          20.9831

            IN - OUT =   473307712.9179              IN - OUT =         -20.8856

          STORAGE:                                 STORAGE:
          --------                                 --------
      STORAGE CHANGE =   473508292.9161        STORAGE CHANGE =         -20.8856

 PERCENT DISCREPANCY IS DIFFERENCE BETWEEN IN-OUT MINUS CHANGE IN STORAGE
 DIVIDED BY THE AVERAGE OF IN AND OUT TIMES 100

 PERCENT DISCREPANCY =          -0.00     PERCENT DISCREPANCY =           0.00






1
  VOLUMETRIC BUDGET FOR AGRICULTURAL FIELDS AT  END OF TIME STEP   30, STRESS PERIOD  12
  ------------------------------------------------------------------------------

     CUMULATIVE VOLUMES      L**3       RATES FOR THIS TIME STEP      L**3/T
     ------------------                 ------------------------

           IN:                                      IN:
           ---                                      ---
               AG WELLS  =  3104902144.0000                 AG WELLS  =           0.0000
      DIVERSION SEGMENTS =   188148784.0000        DIVERSION SEGMENTS =           0.0000
           GW IRRIGATION =           0.0000             GW IRRIGATION =           0.0000
           SW IRRIGATION =           0.0000             SW IRRIGATION =           0.0000
        SYSTEM LOSSES GW =           0.0000          SYSTEM LOSSES GW =           0.0000
        SYSTEM LOSSES SW =           0.0000          SYSTEM LOSSES SW =           0.0000

                TOTAL IN =  3293050880.0000                  TOTAL IN =           0.0000

          OUT:                                     OUT:
          ----                                     ----
               AG WELLS  =           0.0000                 AG WELLS  =           0.0000
      DIVERSION SEGMENTS =           0.0000        DIVERSION SEGMENTS =           0.0000
           GW IRRIGATION =  3104902144.0000             GW IRRIGATION =           0.0000
           SW IRRIGATION =   188152464.0000             SW IRRIGATION =           0.0000
        SYSTEM LOSSES GW =           0.0000          SYSTEM LOSSES GW =           0.0000
        SYSTEM LOSSES SW =           0.0000          SYSTEM LOSSES SW =           0.0000

               TOTAL OUT =  3293054720.0000                 TOTAL OUT =           0.0000

                IN - OUT =       -3840.0000                  IN - OUT =           0.0000

     PERCENT DISCREPANCY =          -0.00         PERCENT DISCREPANCY =           0.00



1
  VOLUMETRIC BUDGET FOR ENTIRE MODEL AT END OF TIME STEP   30, STRESS PERIOD  12
  ------------------------------------------------------------------------------

     CUMULATIVE VOLUMES      L**3       RATES FOR THIS TIME STEP      L**3/T
     ------------------                 ------------------------

           IN:                                      IN:
           ---                                      ---
             STORAGE     =  3285496832.0000               STORAGE     =          10.4371
       CONSTANT HEAD     =           0.0000         CONSTANT HEAD     =           0.0000
     HEAD DEP BOUNDS     =     8354749.5000       HEAD DEP BOUNDS     =           0.2881
      STREAM LEAKAGE     =   343438816.0000        STREAM LEAKAGE     =          11.5987
        UZF RECHARGE     =  2415589632.0000          UZF RECHARGE     =          20.9831
               GW ET     =           0.0000                 GW ET     =           0.0000
     SURFACE LEAKAGE     =           0.0000       SURFACE LEAKAGE     =           0.0000
           AG WELLS      =           0.0000             AG WELLS      =           0.0000

                TOTAL IN =  6052880384.0000                  TOTAL IN =          43.3070

          OUT:                                     OUT:
          ----                                     ----
             STORAGE     =  2644684544.0000               STORAGE     =          33.3592
       CONSTANT HEAD     =           0.0000         CONSTANT HEAD     =           0.0000
     HEAD DEP BOUNDS     =     8361234.0000       HEAD DEP BOUNDS     =           0.2875
      STREAM LEAKAGE     =   294892672.0000        STREAM LEAKAGE     =           9.6565
        UZF RECHARGE     =           0.0000          UZF RECHARGE     =           0.0000
               GW ET     =           0.0000                 GW ET     =           0.0000
     SURFACE LEAKAGE     =           0.0000       SURFACE LEAKAGE     =           0.0000
           AG WELLS      =  3104902144.0000             AG WELLS      =           0.0000

               TOTAL OUT =  6052840448.0000                 TOTAL OUT =          43.3032

                IN - OUT =       39936.0000                  IN - OUT =       3.7460E-03

     PERCENT DISCREPANCY =           0.00         PERCENT DISCREPANCY =           0.01






         TIME SUMMARY AT END OF TIME STEP   30 IN STRESS PERIOD   12
                    SECONDS     MINUTES      HOURS       DAYS        YEARS
                    -----------------------------------------------------------
   TIME STEP LENGTH  87667.      1461.1      24.352      1.0147     2.77799E-03
 STRESS PERIOD TIME 2.63000E+06  43833.      730.56      30.440     8.33397E-02
         TOTAL TIME 2.90163E+07 4.83606E+05  8060.1      335.84     0.91947    
1
1
                            STRESS PERIOD NO.   13, LENGTH =   2630000.    
                            -----------------------------------------------

                              NUMBER OF TIME STEPS =    30

                               MULTIPLIER FOR DELT =     1.000

                            INITIAL TIME STEP SIZE =   87666.66    

 REUSING NON-PARAMETER GHB CELLS FROM LAST STRESS PERIOD

      2 GHB CELLS

 REUSING STREAM SEGMENT DATA FROM LAST STRESS PERIOD



            AREAL INFILTRATION RATE
 READING ON UNIT   19 WITH FORMAT: (FREE)              

            1           2           3           4           5           6           7           8           9          10
 ........................................................................................................................
   1   1.0000E-10  2.0000E-10   0.000       0.000       0.000       0.000       0.000       0.000       0.000       0.000    
   2   2.0000E-10  1.0000E-10  2.0000E-10   0.000       0.000      8.0000E-10  8.0000E-10  5.0000E-10   0.000       0.000    
   3    0.000      5.0000E-10  1.0000E-10  1.0000E-10  8.0000E-10  8.0000E-10  5.0000E-10  5.0000E-10   0.000       0.000    
   4   8.0000E-10  5.0000E-10  1.0000E-10  1.0000E-10  1.0000E-10  1.0000E-10  1.0000E-10  1.0000E-10  2.0000E-10   0.000    
   5   8.0000E-10  5.0000E-10  1.0000E-10  1.0000E-10  1.0000E-10  1.0000E-10  1.0000E-10  1.0000E-10  1.0000E-10  1.0000E-10
   6   8.0000E-10  5.0000E-10  5.0000E-10  2.0000E-10  2.0000E-10  1.0000E-10  1.0000E-10  1.0000E-10  1.0000E-10  5.0000E-10
   7   8.0000E-10  5.0000E-10  5.0000E-10  2.0000E-10  2.0000E-10  1.0000E-10  1.0000E-10  2.0000E-10  2.0000E-10   0.000    
   8    0.000      5.0000E-10  5.0000E-10  2.0000E-10  2.0000E-10  1.0000E-10  1.0000E-10  2.0000E-10  5.0000E-10   0.000    
   9    0.000      5.0000E-10  5.0000E-10  2.0000E-10  2.0000E-10  1.0000E-10  1.0000E-10  2.0000E-10  5.0000E-10   0.000    
  10    0.000      5.0000E-10  5.0000E-10  2.0000E-10  2.0000E-10  1.0000E-10  1.0000E-10  2.0000E-10  5.0000E-10  8.0000E-10
  11    0.000      1.0000E-10  1.0000E-10  1.0000E-10  1.0000E-10  1.0000E-10  1.0000E-10  2.0000E-10  5.0000E-10   0.000    
  12   1.0000E-10  1.0000E-10  1.0000E-10  1.0000E-10  1.0000E-10  1.0000E-10  1.0000E-10  1.0000E-10  2.0000E-10   0.000    
  13   1.0000E-10  1.0000E-10  2.0000E-10  2.0000E-10  2.0000E-10  2.0000E-10  2.0000E-10  1.0000E-10  1.0000E-10   0.000    
  14    0.000      2.0000E-10  5.0000E-10  5.0000E-10  5.0000E-10  5.0000E-10  5.0000E-10  2.0000E-10  1.0000E-10   0.000    
  15    0.000       0.000      8.0000E-10  8.0000E-10  8.0000E-10  8.0000E-10   0.000       0.000       0.000       0.000    

                  ET RATE =  5.000000E-10

 USING ET EXTINCTION DEPTH FROM PREVIOUS STRESS PERIOD. CURRENT PERIOD IS:      13

 USING EXTINCTION WATER CONTENT FROM PREVIOUS STRESS PERIOD. CURRENT PERIOD IS:      13

 USING AIR ENTRY PRESSURE FROM PREVIOUS STRESS PERIOD. CURRENT PERIOD IS:      13

 USING ROOT PRESSURE HEAD FROM PREVIOUS STRESS PERIOD. CURRENT PERIOD IS:      13

 USING ROOT ACTIVITY FROM PREVIOUS STRESS PERIOD. CURRENT PERIOD IS:      13

 PROCESSING AG STRESS PERIOD DATA

 READING AG STRESS PERIOD DATA

 READING IRRIGATION SEGMENT

 READING IRRIGATION WELL

 READING SUPPLEMENTAL WELL

 END PROCESSING AG STRESS PERIOD DATA OPTIONS
 
 SOLVING FOR HEAD 
                                                   Max.-Head-Change                         Max.-Flux-Residual
  Residual-Control   Outer-Iter.   Inner-Iter.     Column Row Layer    Maximum-Head-Change  Column Row Layer    Maximum-Flux-Residual          L2-NORM 
          0                 1           2             3    7     1       0.5533530168E-01       6    7    1         0.2109574435E+01      0.6466036306E+01
          0                 2           2             4    7     1       0.1031903975E-01       4    7    1         0.5609638332E+00      0.1115942400E+01
          0                 3           2             4    7     1       0.3531302237E-02       4    7    1         0.1908520126E+00      0.3211161616E+00
          0                 4           2             4    6     1       0.1226517668E-02       4    7    1         0.6540313252E-01      0.1084874640E+00
          0                 5           2             4    6     1       0.4293874265E-03       4    6    1         0.2282839317E-01      0.3716070927E-01
          0                 6           2             4    6     1       0.1502274554E-03       4    6    1         0.7990852436E-02      0.1279243454E-01
          0                 7           1             4    6     1       0.5252992553E-04       4    6    1         0.2795326787E-02      0.4417219431E-02

    ------------------------------------------------
       NWT REQUIRED            7 OUTER ITERATIONS 
       AND A TOTAL OF         13 INNER ITERATIONS.
    ------------------------------------------------

 NO OUTPUT CONTROL FOR STRESS PERIOD   13   TIME STEP    1
 
 SOLVING FOR HEAD 
                                                   Max.-Head-Change                         Max.-Flux-Residual
  Residual-Control   Outer-Iter.   Inner-Iter.     Column Row Layer    Maximum-Head-Change  Column Row Layer    Maximum-Flux-Residual          L2-NORM 
          0                 1           2             3    7     1       0.5495875314E-01       6    7    1         0.2041430393E+01      0.6445486314E+01
          0                 2           2             4    6     1       0.9871696859E-02       4    6    1         0.5287409195E+00      0.1113301162E+01
          0                 3           2             4    6     1       0.3453886420E-02       4    6    1         0.1834464654E+00      0.3137949028E+00
          0                 4           2             4    6     1       0.1207346576E-02       4    6    1         0.6427805185E-01      0.1041282816E+00
          0                 5           2             4    6     1       0.4217302863E-03       4    6    1         0.2246039252E-01      0.3527629567E-01
          0                 6           2             4    6     1       0.1472217673E-03       4    6    1         0.7844444535E-02      0.1206271806E-01
          0                 7           1             4    6     1       0.5136732024E-04       4    6    1         0.2738052124E-02      0.4148533418E-02

    ------------------------------------------------
       NWT REQUIRED            7 OUTER ITERATIONS 
       AND A TOTAL OF         13 INNER ITERATIONS.
    ------------------------------------------------

 NO OUTPUT CONTROL FOR STRESS PERIOD   13   TIME STEP    2
 
 SOLVING FOR HEAD 
                                                   Max.-Head-Change                         Max.-Flux-Residual
  Residual-Control   Outer-Iter.   Inner-Iter.     Column Row Layer    Maximum-Head-Change  Column Row Layer    Maximum-Flux-Residual          L2-NORM 
          0                 1           2             3    7     1       0.5448885252E-01       4    5    1         0.2009834070E+01      0.6188615374E+01
          0                 2           2             4    6     1       0.9650950088E-02       4    6    1         0.5201937846E+00      0.9844848425E+00
          0                 3           2             4    6     1       0.3345727853E-02       4    6    1         0.1790183071E+00      0.2595116408E+00
          0                 4           2             4    6     1       0.1157504839E-02       4    6    1         0.6213313972E-01      0.8419042533E-01
          0                 5           2             4    6     1       0.3998402992E-03       4    6    1         0.2148233995E-01      0.2806699199E-01
          0                 6           2             4    6     1       0.1379573304E-03       4    6    1         0.7418499649E-02      0.9467255111E-02
          0                 7           1             4    6     1       0.4755745100E-04       4    6    1         0.2558981262E-02      0.3215997582E-02

    ------------------------------------------------
       NWT REQUIRED            7 OUTER ITERATIONS 
       AND A TOTAL OF         13 INNER ITERATIONS.
    ------------------------------------------------

 NO OUTPUT CONTROL FOR STRESS PERIOD   13   TIME STEP    3
 
 SOLVING FOR HEAD 
                                                   Max.-Head-Change                         Max.-Flux-Residual
  Residual-Control   Outer-Iter.   Inner-Iter.     Column Row Layer    Maximum-Head-Change  Column Row Layer    Maximum-Flux-Residual          L2-NORM 
          0                 1           2             3    7     1       0.5351263677E-01       4    5    1         0.1989388977E+01      0.6104761155E+01
          0                 2           2             4    6     1       0.9021615238E-02       4    6    1         0.4953177102E+00      0.9711880908E+00
          0                 3           2             4    6     1       0.3067777754E-02       4    6    1         0.1664466788E+00      0.2530374954E+00
          0                 4           2             4    6     1       0.1045638628E-02       4    6    1         0.5674005249E-01      0.8054052752E-01
          0                 5           2             4    6     1       0.3570776091E-03       4    6    1         0.1934508372E-01      0.2636412846E-01
          0                 6           2             4    6     1       0.1221252454E-03       4    6    1         0.6609001745E-02      0.8753388380E-02
          0                 7           1             4    6     1       0.4181932215E-04       4    6    1         0.2261098680E-02      0.2936203186E-02

    ------------------------------------------------
       NWT REQUIRED            7 OUTER ITERATIONS 
       AND A TOTAL OF         13 INNER ITERATIONS.
    ------------------------------------------------

 NO OUTPUT CONTROL FOR STRESS PERIOD   13   TIME STEP    4
 
 SOLVING FOR HEAD 
                                                   Max.-Head-Change                         Max.-Flux-Residual
  Residual-Control   Outer-Iter.   Inner-Iter.     Column Row Layer    Maximum-Head-Change  Column Row Layer    Maximum-Flux-Residual          L2-NORM 
          0                 1           2             3    7     1       0.5236061153E-01       4    5    1         0.1967883877E+01      0.6039979908E+01
          0                 2           2             4    6     1       0.8080468100E-02       4    6    1         0.4544452300E+00      0.9166380858E+00
          0                 3           2             4    6     1       0.2671604604E-02       4    6    1         0.1480140147E+00      0.2202888359E+00
          0                 4           2             4    6     1       0.8877768576E-03       4    6    1         0.4910445815E-01      0.6500060110E-01
          0                 5           2             4    6     1       0.2962542127E-03       4    6    1         0.1633158843E-01      0.1993094248E-01
          0                 6           1             4    6     1       0.9920597508E-04       4    6    1         0.5455077545E-02      0.6251425086E-02

    ------------------------------------------------
       NWT REQUIRED            6 OUTER ITERATIONS 
       AND A TOTAL OF         11 INNER ITERATIONS.
    ------------------------------------------------

 NO OUTPUT CONTROL FOR STRESS PERIOD   13   TIME STEP    5
 
 SOLVING FOR HEAD 
                                                   Max.-Head-Change                         Max.-Flux-Residual
  Residual-Control   Outer-Iter.   Inner-Iter.     Column Row Layer    Maximum-Head-Change  Column Row Layer    Maximum-Flux-Residual          L2-NORM 
          0                 1           2             3    7     1       0.5125770877E-01       4    5    1         0.1943362789E+01      0.5847916235E+01
          0                 2           2             4    6     1       0.7363408995E-02       4    6    1         0.4146777043E+00      0.8663407270E+00
          0                 3           2             4    6     1       0.2432801089E-02       4    6    1         0.1348325520E+00      0.2040984077E+00
          0                 4           2             4    6     1       0.8079402809E-03       4    6    1         0.4470905345E-01      0.5992776584E-01
          0                 5           2             4    6     1       0.2694784093E-03       4    6    1         0.1486092217E-01      0.1831602644E-01
          0                 6           1             4    6     1       0.9020243598E-04       4    6    1         0.4961499214E-02      0.5727950531E-02

    ------------------------------------------------
       NWT REQUIRED            6 OUTER ITERATIONS 
       AND A TOTAL OF         11 INNER ITERATIONS.
    ------------------------------------------------

 NO OUTPUT CONTROL FOR STRESS PERIOD   13   TIME STEP    6
 
 SOLVING FOR HEAD 
                                                   Max.-Head-Change                         Max.-Flux-Residual
  Residual-Control   Outer-Iter.   Inner-Iter.     Column Row Layer    Maximum-Head-Change  Column Row Layer    Maximum-Flux-Residual          L2-NORM 
          0                 1           2             3    7     1       0.5020072150E-01       4    5    1         0.1916369093E+01      0.5643124178E+01
          0                 2           2             4    6     1       0.6740479372E-02       4    6    1         0.3796630125E+00      0.8086995849E+00
          0                 3           2             4    6     1       0.2228422677E-02       4    6    1         0.1234278949E+00      0.1858201391E+00
          0                 4           2             4    6     1       0.7404479503E-03       4    6    1         0.4095965569E-01      0.5454832899E-01
          0                 5           2             4    6     1       0.2470688304E-03       4    6    1         0.1362100696E-01      0.1670629988E-01
          0                 6           1             4    6     1       0.8272819559E-04       4    6    1         0.4549313171E-02      0.5233991667E-02

    ------------------------------------------------
       NWT REQUIRED            6 OUTER ITERATIONS 
       AND A TOTAL OF         11 INNER ITERATIONS.
    ------------------------------------------------

 NO OUTPUT CONTROL FOR STRESS PERIOD   13   TIME STEP    7
 
 SOLVING FOR HEAD 
                                                   Max.-Head-Change                         Max.-Flux-Residual
  Residual-Control   Outer-Iter.   Inner-Iter.     Column Row Layer    Maximum-Head-Change  Column Row Layer    Maximum-Flux-Residual          L2-NORM 
          0                 1           2             3    7     1       0.4918651965E-01       4    5    1         0.1887441528E+01      0.5458316122E+01
          0                 2           2             4    6     1       0.6194780955E-02       4    6    1         0.3489506862E+00      0.7577354103E+00
          0                 3           2             4    6     1       0.2049590292E-02       4    6    1         0.1134407924E+00      0.1694894513E+00
          0                 4           2             4    6     1       0.6814516963E-03       4    6    1         0.3767974210E-01      0.4974970262E-01
          0                 5           2             4    6     1       0.2274974448E-03       4    6    1         0.1253742294E-01      0.1527573540E-01
          0                 6           1             4    6     1       0.7620549467E-04       4    6    1         0.4189401438E-02      0.4796783994E-02

    ------------------------------------------------
       NWT REQUIRED            6 OUTER ITERATIONS 
       AND A TOTAL OF         11 INNER ITERATIONS.
    ------------------------------------------------

 NO OUTPUT CONTROL FOR STRESS PERIOD   13   TIME STEP    8
 
 SOLVING FOR HEAD 
                                                   Max.-Head-Change                         Max.-Flux-Residual
  Residual-Control   Outer-Iter.   Inner-Iter.     Column Row Layer    Maximum-Head-Change  Column Row Layer    Maximum-Flux-Residual          L2-NORM 
          0                 1           2             3    7     1       0.4821274707E-01       4    5    1         0.1857035660E+01      0.5290817626E+01
          0                 2           2             4    6     1       0.5717089567E-02       4    6    1         0.3220281325E+00      0.7126639484E+00
          0                 3           2             4    6     1       0.1893246181E-02       4    6    1         0.1047018232E+00      0.1548950956E+00
          0                 4           2             4    6     1       0.6299325576E-03       4    6    1         0.3481309067E-01      0.4546858163E-01
          0                 5           2             4    6     1       0.2104232538E-03       4    6    1         0.1159141240E-01      0.1400467121E-01
          0                 6           1             4    6     1       0.7051982949E-04       4    6    1         0.3875480957E-02      0.4410014873E-02

    ------------------------------------------------
       NWT REQUIRED            6 OUTER ITERATIONS 
       AND A TOTAL OF         11 INNER ITERATIONS.
    ------------------------------------------------

 NO OUTPUT CONTROL FOR STRESS PERIOD   13   TIME STEP    9
 
 SOLVING FOR HEAD 
                                                   Max.-Head-Change                         Max.-Flux-Residual
  Residual-Control   Outer-Iter.   Inner-Iter.     Column Row Layer    Maximum-Head-Change  Column Row Layer    Maximum-Flux-Residual          L2-NORM 
          0                 1           2             3    7     1       0.4726923925E-01       4    5    1         0.1825555225E+01      0.5226273205E+01
          0                 2           2             4    6     1      -0.6459954671E-02       4    6    1        -0.3420567061E+00      0.7001588632E+00
          0                 3           2             4    6     1      -0.1789898741E-02       4    6    1        -0.9602609910E-01      0.1464548147E+00
          0                 4           2             4    6     1      -0.4961263876E-03       4    6    1        -0.2652654724E-01      0.3968771074E-01
          0                 5           2             4    6     1      -0.1375674183E-03       4    6    1        -0.7356252808E-02      0.1108971518E-01
          0                 6           1             4    6     1      -0.3815869905E-04       4    6    1        -0.2039924345E-02      0.3100850453E-02

    ------------------------------------------------
       NWT REQUIRED            6 OUTER ITERATIONS 
       AND A TOTAL OF         11 INNER ITERATIONS.
    ------------------------------------------------

 NO OUTPUT CONTROL FOR STRESS PERIOD   13   TIME STEP   10
 
 SOLVING FOR HEAD 
                                                   Max.-Head-Change                         Max.-Flux-Residual
  Residual-Control   Outer-Iter.   Inner-Iter.     Column Row Layer    Maximum-Head-Change  Column Row Layer    Maximum-Flux-Residual          L2-NORM 
          0                 1           2             3    7     1       0.4634092501E-01       4    6    1        -0.1755163115E+01      0.5231022064E+01
          0                 2           2             4    6     1      -0.8780898951E-02       4    6    1        -0.4689711875E+00      0.7531811536E+00
          0                 3           2             4    6     1      -0.2415449955E-02       4    6    1        -0.1301685630E+00      0.1676911041E+00
          0                 4           2             4    6     1      -0.6648411422E-03       4    6    1        -0.3573318870E-01      0.4565007775E-01
          0                 5           2             4    6     1      -0.1831011768E-03       4    6    1        -0.9839608479E-02      0.1271252024E-01
          0                 6           1             4    6     1      -0.5045577453E-04       4    6    1        -0.2710270459E-02      0.3542886813E-02

    ------------------------------------------------
       NWT REQUIRED            6 OUTER ITERATIONS 
       AND A TOTAL OF         11 INNER ITERATIONS.
    ------------------------------------------------

 NO OUTPUT CONTROL FOR STRESS PERIOD   13   TIME STEP   11
 
 SOLVING FOR HEAD 
                                                   Max.-Head-Change                         Max.-Flux-Residual
  Residual-Control   Outer-Iter.   Inner-Iter.     Column Row Layer    Maximum-Head-Change  Column Row Layer    Maximum-Flux-Residual          L2-NORM 
          0                 1           2             3    7     1       0.4542975752E-01       4    5    1         0.1663238628E+01      0.5065505824E+01
          0                 2           2             4    6     1      -0.8150778450E-02       4    6    1        -0.4350716149E+00      0.7161206205E+00
          0                 3           2             4    6     1      -0.2243060601E-02       4    6    1        -0.1208489874E+00      0.1570161146E+00
          0                 4           2             4    6     1      -0.6176427320E-03       4    6    1        -0.3318631758E-01      0.4268156704E-01
          0                 5           2             4    6     1      -0.1701691343E-03       4    6    1        -0.9142059054E-02      0.1188861382E-01
          0                 6           1             4    6     1      -0.4690990613E-04       4    6    1        -0.2519110222E-02      0.3314055001E-02

    ------------------------------------------------
       NWT REQUIRED            6 OUTER ITERATIONS 
       AND A TOTAL OF         11 INNER ITERATIONS.
    ------------------------------------------------

 NO OUTPUT CONTROL FOR STRESS PERIOD   13   TIME STEP   12
 
 SOLVING FOR HEAD 
                                                   Max.-Head-Change                         Max.-Flux-Residual
  Residual-Control   Outer-Iter.   Inner-Iter.     Column Row Layer    Maximum-Head-Change  Column Row Layer    Maximum-Flux-Residual          L2-NORM 
          0                 1           2             3    7     1       0.4453733141E-01       4    5    1         0.1584562270E+01      0.4910957152E+01
          0                 2           2             4    6     1      -0.7563862362E-02       4    6    1        -0.4035140920E+00      0.6816652291E+00
          0                 3           2             4    6     1      -0.2082374010E-02       4    6    1        -0.1121666582E+00      0.1470085350E+00
          0                 4           2             4    6     1      -0.5736170504E-03       4    6    1        -0.3081188308E-01      0.3989217572E-01
          0                 5           2             4    6     1      -0.1580979994E-03       4    6    1        -0.8491276397E-02      0.1111344421E-01
          0                 6           1             4    6     1      -0.4359784240E-04       4    6    1        -0.2340642855E-02      0.3098510628E-02

    ------------------------------------------------
       NWT REQUIRED            6 OUTER ITERATIONS 
       AND A TOTAL OF         11 INNER ITERATIONS.
    ------------------------------------------------

 NO OUTPUT CONTROL FOR STRESS PERIOD   13   TIME STEP   13
 
 SOLVING FOR HEAD 
                                                   Max.-Head-Change                         Max.-Flux-Residual
  Residual-Control   Outer-Iter.   Inner-Iter.     Column Row Layer    Maximum-Head-Change  Column Row Layer    Maximum-Flux-Residual          L2-NORM 
          0                 1           2             3    7     1       0.4366428532E-01       4    5    1         0.1511255828E+01      0.4766472015E+01
          0                 2           2             4    6     1      -0.7016715116E-02       4    6    1        -0.3741111465E+00      0.6496162069E+00
          0                 3           2             4    6     1      -0.1932467609E-02       4    6    1        -0.1040710238E+00      0.1376170679E+00
          0                 4           2             4    6     1      -0.5325161196E-03       4    6    1        -0.2859632293E-01      0.3726820686E-01
          0                 5           2             4    6     1      -0.1468210559E-03       4    6    1        -0.7883613723E-02      0.1038341655E-01
          0                 6           1             4    6     1      -0.4050161838E-04       4    6    1        -0.2173886984E-02      0.2895282940E-02

    ------------------------------------------------
       NWT REQUIRED            6 OUTER ITERATIONS 
       AND A TOTAL OF         11 INNER ITERATIONS.
    ------------------------------------------------

 NO OUTPUT CONTROL FOR STRESS PERIOD   13   TIME STEP   14
 
 SOLVING FOR HEAD 
                                                   Max.-Head-Change                         Max.-Flux-Residual
  Residual-Control   Outer-Iter.   Inner-Iter.     Column Row Layer    Maximum-Head-Change  Column Row Layer    Maximum-Flux-Residual          L2-NORM 
          0                 1           2             3    7     1       0.4281087674E-01       4    5    1         0.1442943314E+01      0.4631255636E+01
          0                 2           2             4    6     1      -0.6506285818E-02       4    6    1        -0.3466961807E+00      0.6198020584E+00
          0                 3           2             4    6     1      -0.1792522752E-02       4    6    1        -0.9651720397E-01      0.1287982176E+00
          0                 4           2             4    6     1      -0.4941200675E-03       4    6    1        -0.2652760511E-01      0.3479801057E-01
          0                 5           2             4    6     1      -0.1362791960E-03       4    6    1        -0.7315838257E-02      0.9695271020E-02
          0                 6           1             4    6     1      -0.3760532862E-04       4    6    1        -0.2017973327E-02      0.2703544797E-02

    ------------------------------------------------
       NWT REQUIRED            6 OUTER ITERATIONS 
       AND A TOTAL OF         11 INNER ITERATIONS.
    ------------------------------------------------

 NO OUTPUT CONTROL FOR STRESS PERIOD   13   TIME STEP   15
 
 SOLVING FOR HEAD 
                                                   Max.-Head-Change                         Max.-Flux-Residual
  Residual-Control   Outer-Iter.   Inner-Iter.     Column Row Layer    Maximum-Head-Change  Column Row Layer    Maximum-Flux-Residual          L2-NORM 
          0                 1           2             3    7     1       0.4197748454E-01       4    5    1         0.1379256405E+01      0.4504580412E+01
          0                 2           2             4    6     1      -0.6029760184E-02       4    6    1        -0.3211156904E+00      0.5920666773E+00
          0                 3           2             4    6     1      -0.1661783327E-02       4    6    1        -0.8946378262E-01      0.1205127461E+00
          0                 4           2             4    6     1      -0.4582255656E-03       4    6    1        -0.2459461305E-01      0.3247106958E-01
          0                 5           2             4    6     1      -0.1264176921E-03       4    6    1        -0.6784959471E-02      0.9046357536E-02
          0                 6           1             4    6     1      -0.3489423020E-04       4    6    1        -0.1872096781E-02      0.2522544113E-02

    ------------------------------------------------
       NWT REQUIRED            6 OUTER ITERATIONS 
       AND A TOTAL OF         11 INNER ITERATIONS.
    ------------------------------------------------

 NO OUTPUT CONTROL FOR STRESS PERIOD   13   TIME STEP   16
 
 SOLVING FOR HEAD 
                                                   Max.-Head-Change                         Max.-Flux-Residual
  Residual-Control   Outer-Iter.   Inner-Iter.     Column Row Layer    Maximum-Head-Change  Column Row Layer    Maximum-Flux-Residual          L2-NORM 
          0                 1           2             3    7     1       0.4116389601E-01       4    5    1         0.1319869993E+01      0.4385794280E+01
          0                 2           2             4    6     1      -0.5584573437E-02       4    6    1        -0.2972298494E+00      0.5662694415E+00
          0                 3           2             4    6     1      -0.1539559736E-02       4    6    1        -0.8287300850E-01      0.1127255802E+00
          0                 4           2             4    6     1      -0.4246470284E-03       4    6    1        -0.2278720592E-01      0.3027789686E-01
          0                 5           2             4    6     1      -0.1171865538E-03       4    6    1        -0.6288247225E-02      0.8434083418E-02
          0                 6           1             4    6     1      -0.3235484403E-04       4    6    1        -0.1735521738E-02      0.2351600565E-02

    ------------------------------------------------
       NWT REQUIRED            6 OUTER ITERATIONS 
       AND A TOTAL OF         11 INNER ITERATIONS.
    ------------------------------------------------

 NO OUTPUT CONTROL FOR STRESS PERIOD   13   TIME STEP   17
 
 SOLVING FOR HEAD 
                                                   Max.-Head-Change                         Max.-Flux-Residual
  Residual-Control   Outer-Iter.   Inner-Iter.     Column Row Layer    Maximum-Head-Change  Column Row Layer    Maximum-Flux-Residual          L2-NORM 
          0                 1           2             3    7     1       0.4037030358E-01       4    5    1         0.1264484782E+01      0.4274292082E+01
          0                 2           2             4    6     1      -0.5168347558E-02       4    6    1        -0.2749091204E+00      0.5422811897E+00
          0                 3           2             4    6     1      -0.1425211784E-02       4    6    1        -0.7670986810E-01      0.1054051559E+00
          0                 4           2             4    6     1      -0.3932119543E-03       4    6    1        -0.2109596613E-01      0.2820992506E-01
          0                 5           1             4    6     1      -0.1085393057E-03       4    6    1        -0.5823162996E-02      0.7856149659E-02
          0                 6           1             4    6     1      -0.2997457937E-04       4    6    1        -0.1607561525E-02      0.2190092845E-02

    ------------------------------------------------
       NWT REQUIRED            6 OUTER ITERATIONS 
       AND A TOTAL OF         10 INNER ITERATIONS.
    ------------------------------------------------

 NO OUTPUT CONTROL FOR STRESS PERIOD   13   TIME STEP   18
 
 SOLVING FOR HEAD 
                                                   Max.-Head-Change                         Max.-Flux-Residual
  Residual-Control   Outer-Iter.   Inner-Iter.     Column Row Layer    Maximum-Head-Change  Column Row Layer    Maximum-Flux-Residual          L2-NORM 
          0                 1           2             3    7     1       0.3959681306E-01       4    5    1         0.1212802561E+01      0.4169524513E+01
          0                 2           2             4    6     1      -0.4778949077E-02       4    6    1        -0.2540374171E+00      0.5199857524E+00
          0                 3           2             4    6     1      -0.1318164694E-02       4    6    1        -0.7094293771E-01      0.9852391739E-01
          0                 4           2             4    6     1      -0.3637653554E-03       4    6    1        -0.1951243694E-01      0.2625963395E-01
          0                 5           1             4    6     1      -0.1004340196E-03       4    6    1        -0.5387425553E-02      0.7310531783E-02
          0                 6           1             4    6     1      -0.2774220938E-04       4    6    1        -0.1487604380E-02      0.2037479230E-02

    ------------------------------------------------
       NWT REQUIRED            6 OUTER ITERATIONS 
       AND A TOTAL OF         10 INNER ITERATIONS.
    ------------------------------------------------

 NO OUTPUT CONTROL FOR STRESS PERIOD   13   TIME STEP   19
 
 SOLVING FOR HEAD 
                                                   Max.-Head-Change                         Max.-Flux-Residual
  Residual-Control   Outer-Iter.   Inner-Iter.     Column Row Layer    Maximum-Head-Change  Column Row Layer    Maximum-Flux-Residual          L2-NORM 
          0                 1           2             3    7     1       0.3884297987E-01       4    5    1         0.1164576913E+01      0.4070999691E+01
          0                 2           2             4    6     1      -0.4414394210E-02       4    6    1        -0.2345067022E+00      0.4992779633E+00
          0                 3           2             4    6     1      -0.1217884153E-02       4    6    1        -0.6554300573E-01      0.9205774024E-01
          0                 4           2             4    6     1      -0.3361631904E-03       4    6    1        -0.1802875734E-01      0.2442040137E-01
          0                 5           1             4    6     1      -0.9283188289E-04       4    6    1        -0.4978914936E-02      0.6795445826E-02

    ------------------------------------------------
       NWT REQUIRED            5 OUTER ITERATIONS 
       AND A TOTAL OF          9 INNER ITERATIONS.
    ------------------------------------------------

 NO OUTPUT CONTROL FOR STRESS PERIOD   13   TIME STEP   20
 
 SOLVING FOR HEAD 
                                                   Max.-Head-Change                         Max.-Flux-Residual
  Residual-Control   Outer-Iter.   Inner-Iter.     Column Row Layer    Maximum-Head-Change  Column Row Layer    Maximum-Flux-Residual          L2-NORM 
          0                 1           2             3    7     1       0.3810875893E-01       4    5    1         0.1119579361E+01      0.3978289370E+01
          0                 2           2             4    6     1      -0.4073115912E-02       4    6    1        -0.2162317333E+00      0.4800690104E+00
          0                 3           2             4    6     1      -0.1123947861E-02       4    6    1        -0.6048698903E-01      0.8598835552E-01
          0                 4           2             4    6     1      -0.3102915533E-03       4    6    1        -0.1663871349E-01      0.2268721525E-01
          0                 5           1             4    6     1      -0.8570214495E-04       4    6    1        -0.4595954458E-02      0.6309539502E-02

    ------------------------------------------------
       NWT REQUIRED            5 OUTER ITERATIONS 
       AND A TOTAL OF          9 INNER ITERATIONS.
    ------------------------------------------------

 NO OUTPUT CONTROL FOR STRESS PERIOD   13   TIME STEP   21
 
 SOLVING FOR HEAD 
                                                   Max.-Head-Change                         Max.-Flux-Residual
  Residual-Control   Outer-Iter.   Inner-Iter.     Column Row Layer    Maximum-Head-Change  Column Row Layer    Maximum-Flux-Residual          L2-NORM 
          0                 1           2             3    7     1       0.3739411018E-01       4    5    1         0.1077562723E+01      0.3890945301E+01
          0                 2           2             4    6     1      -0.3753127975E-02       4    6    1        -0.1991047916E+00      0.4621998448E+00
          0                 3           2             4    6     1      -0.1035817044E-02       4    6    1        -0.5574559610E-01      0.8024660576E-01
          0                 4           2             4    6     1      -0.2860037358E-03       4    6    1        -0.1533436222E-01      0.2103458103E-01
          0                 5           1             4    6     1      -0.7900467394E-04       4    6    1        -0.4236378547E-02      0.5844411042E-02

    ------------------------------------------------
       NWT REQUIRED            5 OUTER ITERATIONS 
       AND A TOTAL OF          9 INNER ITERATIONS.
    ------------------------------------------------

 NO OUTPUT CONTROL FOR STRESS PERIOD   13   TIME STEP   22
 
 SOLVING FOR HEAD 
                                                   Max.-Head-Change                         Max.-Flux-Residual
  Residual-Control   Outer-Iter.   Inner-Iter.     Column Row Layer    Maximum-Head-Change  Column Row Layer    Maximum-Flux-Residual          L2-NORM 
          0                 1           2             3    7     1       0.3669845890E-01       4    5    1         0.1038321407E+01      0.3808541468E+01
          0                 2           2             3    7     1      -0.3604972498E-02       4    6    1        -0.1830473675E+00      0.4456817793E+00
          0                 3           2             4    6     1      -0.9531035766E-03       4    6    1        -0.5129753886E-01      0.7489934972E-01
          0                 4           2             4    6     1      -0.2631962303E-03       4    6    1        -0.1410999999E-01      0.1949356277E-01
          0                 5           1             4    6     1      -0.7271214558E-04       4    6    1        -0.3898669309E-02      0.5411492848E-02

    ------------------------------------------------
       NWT REQUIRED            5 OUTER ITERATIONS 
       AND A TOTAL OF          9 INNER ITERATIONS.
    ------------------------------------------------

 NO OUTPUT CONTROL FOR STRESS PERIOD   13   TIME STEP   23
 
 SOLVING FOR HEAD 
                                                   Max.-Head-Change                         Max.-Flux-Residual
  Residual-Control   Outer-Iter.   Inner-Iter.     Column Row Layer    Maximum-Head-Change  Column Row Layer    Maximum-Flux-Residual          L2-NORM 
          0                 1           2             3    7     1       0.3602168046E-01       4    5    1         0.1001657589E+01      0.3730734391E+01
          0                 2           2             3    7     1      -0.3537243842E-02       4    6    1        -0.1679778681E+00      0.4303749915E+00
          0                 3           2             4    6     1      -0.8753995016E-03       4    6    1        -0.4712064230E-01      0.6988422161E-01
          0                 4           2             4    6     1      -0.2417578093E-03       4    6    1        -0.1295961178E-01      0.1804049559E-01
          0                 5           1             4    6     1      -0.6679404921E-04       4    6    1        -0.3581184151E-02      0.5002863230E-02

    ------------------------------------------------
       NWT REQUIRED            5 OUTER ITERATIONS 
       AND A TOTAL OF          9 INNER ITERATIONS.
    ------------------------------------------------

 NO OUTPUT CONTROL FOR STRESS PERIOD   13   TIME STEP   24
 
 SOLVING FOR HEAD 
                                                   Max.-Head-Change                         Max.-Flux-Residual
  Residual-Control   Outer-Iter.   Inner-Iter.     Column Row Layer    Maximum-Head-Change  Column Row Layer    Maximum-Flux-Residual          L2-NORM 
          0                 1           2             3    7     1       0.3536337688E-01       4    5    1         0.9673958275E+00      0.3657250925E+01
          0                 2           2             3    7     1      -0.3471333227E-02       4    6    1        -0.1538314097E+00      0.4162423780E+00
          0                 3           2             4    6     1      -0.8023823406E-03       4    6    1        -0.4319729508E-01      0.6520478942E-01
          0                 4           2             4    6     1      -0.2216014431E-03       4    6    1        -0.1187845100E-01      0.1667645498E-01
          0                 5           1             4    6     1      -0.6122689941E-04       4    6    1        -0.3282641955E-02      0.4618787759E-02

    ------------------------------------------------
       NWT REQUIRED            5 OUTER ITERATIONS 
       AND A TOTAL OF          9 INNER ITERATIONS.
    ------------------------------------------------

 NO OUTPUT CONTROL FOR STRESS PERIOD   13   TIME STEP   25
 
 SOLVING FOR HEAD 
                                                   Max.-Head-Change                         Max.-Flux-Residual
  Residual-Control   Outer-Iter.   Inner-Iter.     Column Row Layer    Maximum-Head-Change  Column Row Layer    Maximum-Flux-Residual          L2-NORM 
          0                 1           2             3    7     1       0.3472313011E-01       4    5    1         0.9353733314E+00      0.3587792402E+01
          0                 2           2             3    7     1      -0.3407203466E-02       4    6    1        -0.1405405060E+00      0.4032119320E+00
          0                 3           2             4    6     1      -0.7337142004E-03       4    6    1        -0.3950911517E-01      0.6085016788E-01
          0                 4           2             4    6     1      -0.2026354137E-03       4    6    1        -0.1086153725E-01      0.1539849936E-01
          0                 5           1             4    6     1      -0.5598577785E-04       4    6    1        -0.3001690296E-02      0.4258466977E-02

    ------------------------------------------------
       NWT REQUIRED            5 OUTER ITERATIONS 
       AND A TOTAL OF          9 INNER ITERATIONS.
    ------------------------------------------------

 NO OUTPUT CONTROL FOR STRESS PERIOD   13   TIME STEP   26
 
 SOLVING FOR HEAD 
                                                   Max.-Head-Change                         Max.-Flux-Residual
  Residual-Control   Outer-Iter.   Inner-Iter.     Column Row Layer    Maximum-Head-Change  Column Row Layer    Maximum-Flux-Residual          L2-NORM 
          0                 1           2             3    7     1       0.3410074585E-01       4    5    1         0.9054395765E+00      0.3522100041E+01
          0                 2           2             3    7     1      -0.3344841280E-02       4    6    1        -0.1280472564E+00      0.3912226527E+00
          0                 3           2             4    6     1      -0.6691066351E-03       4    6    1        -0.3604037470E-01      0.5681486223E-01
          0                 4           2             4    6     1      -0.1847816653E-03       4    6    1        -0.9904622470E-02      0.1420539941E-01
          0                 5           1             4    6     1      -0.5104954440E-04       4    6    1        -0.2737179197E-02      0.3921580970E-02

    ------------------------------------------------
       NWT REQUIRED            5 OUTER ITERATIONS 
       AND A TOTAL OF          9 INNER ITERATIONS.
    ------------------------------------------------

 NO OUTPUT CONTROL FOR STRESS PERIOD   13   TIME STEP   27
 
 SOLVING FOR HEAD 
                                                   Max.-Head-Change                         Max.-Flux-Residual
  Residual-Control   Outer-Iter.   Inner-Iter.     Column Row Layer    Maximum-Head-Change  Column Row Layer    Maximum-Flux-Residual          L2-NORM 
          0                 1           2             3    7     1       0.3349553130E-01       3    7    1         0.8862919549E+00      0.3459901111E+01
          0                 2           2             3    7     1      -0.3284181252E-02       4    6    1        -0.1162944368E+00      0.3802086175E+00
          0                 3           2             4    6     1      -0.6082718763E-03       4    6    1        -0.3277544343E-01      0.5309241587E-01
          0                 4           2             4    6     1      -0.1679619135E-03       4    6    1        -0.9003462479E-02      0.1309581691E-01
          0                 5           1             4    6     1      -0.4639688711E-04       4    6    1        -0.2487953682E-02      0.3607785072E-02

    ------------------------------------------------
       NWT REQUIRED            5 OUTER ITERATIONS 
       AND A TOTAL OF          9 INNER ITERATIONS.
    ------------------------------------------------

 NO OUTPUT CONTROL FOR STRESS PERIOD   13   TIME STEP   28
 
 SOLVING FOR HEAD 
                                                   Max.-Head-Change                         Max.-Flux-Residual
  Residual-Control   Outer-Iter.   Inner-Iter.     Column Row Layer    Maximum-Head-Change  Column Row Layer    Maximum-Flux-Residual          L2-NORM 
          0                 1           2             3    7     1       0.3290727118E-01       3    7    1         0.8706106769E+00      0.3400985113E+01
          0                 2           2             3    7     1      -0.3225206733E-02       4    6    1        -0.1052354741E+00      0.3701158387E+00
          0                 3           2             4    6     1      -0.5509773844E-03       4    6    1        -0.2970165147E-01      0.4968148916E-01
          0                 4           2             4    6     1      -0.1521131589E-03       4    6    1        -0.8154631567E-02      0.1207019375E-01
          0                 5           1             4    6     1      -0.4201072351E-04       4    6    1        -0.2253085286E-02      0.3317239595E-02

    ------------------------------------------------
       NWT REQUIRED            5 OUTER ITERATIONS 
       AND A TOTAL OF          9 INNER ITERATIONS.
    ------------------------------------------------

 NO OUTPUT CONTROL FOR STRESS PERIOD   13   TIME STEP   29
 
 SOLVING FOR HEAD 
                                                   Max.-Head-Change                         Max.-Flux-Residual
  Residual-Control   Outer-Iter.   Inner-Iter.     Column Row Layer    Maximum-Head-Change  Column Row Layer    Maximum-Flux-Residual          L2-NORM 
          0                 1           2             3    7     1       0.3233574080E-01       3    7    1         0.8553739716E+00      0.3345122411E+01
          0                 2           2             3    7     1      -0.3167897563E-02       4    6    1        -0.9481955722E-01      0.3608850567E+00
          0                 3           2             4    6     1      -0.4969676333E-03       4    6    1        -0.2680512318E-01      0.4657934374E-01
          0                 4           2             4    6     1      -0.1371658679E-03       4    6    1        -0.7354360844E-02      0.1112894441E-01
          0                 5           1             4    6     1      -0.3787211606E-04       4    6    1        -0.2031548046E-02      0.3050127540E-02

    ------------------------------------------------
       NWT REQUIRED            5 OUTER ITERATIONS 
       AND A TOTAL OF          9 INNER ITERATIONS.
    ------------------------------------------------

 NO OUTPUT CONTROL FOR STRESS PERIOD   13   TIME STEP   30



 STREAM LISTING     PERIOD     13   STEP       30

 LAYER ROW COL. STREAM  RCH.  FLOW INTO     FLOW TO   FLOW OUT OF   OVRLND.     DIRECT     STREAM       STREAM     STREAM     STREAM   STREAMBED  STREAMBED
                SEG.NO.  NO.  STRM. RCH.    AQUIFER    STRM. RCH.    RUNOFF     PRECIP       ET          HEAD       DEPTH      WIDTH   CONDCTNC.   GRADIENT

   1    1    1     1     1    8.6249E+00  1.3546E-01   8.4895E+00  0.000E+00  0.000E+00  0.000E+00  1.09390E+03  8.549E-01  7.809E+00  3.514E-02  1.285E+00
   1    2    2     1     2    8.4895E+00  2.0809E-01   8.2814E+00  0.000E+00  0.000E+00  0.000E+00  1.08891E+03  8.492E-01  7.723E+00  5.406E-02  1.283E+00
   1    3    3     1     3    8.2814E+00  1.7583E-01   8.1056E+00  0.000E+00  0.000E+00  0.000E+00  1.08326E+03  8.427E-01  7.626E+00  4.576E-02  1.281E+00
   1    3    4     1     4    8.1056E+00  1.6058E-01   7.9450E+00  0.000E+00  0.000E+00  0.000E+00  1.07824E+03  8.369E-01  7.541E+00  4.185E-02  1.279E+00
   1    4    5     2     1    5.9450E+00  2.7323E-01   5.6717E+00  0.000E+00  0.000E+00  0.000E+00  1.07244E+03  5.030E-01  1.200E+01  7.800E-02  1.168E+00
   1    5    6     2     2    5.6717E+00  2.0942E-01   5.4623E+00  0.000E+00  0.000E+00  0.000E+00  1.06700E+03  4.904E-01  1.200E+01  6.000E-02  1.163E+00
   1    6    6     2     3    5.4623E+00  2.0875E-01   5.2536E+00  0.000E+00  0.000E+00  0.000E+00  1.06227E+03  4.792E-01  1.200E+01  6.000E-02  1.160E+00
   1    7    6     2     4    5.2536E+00  2.0808E-01   5.0455E+00  0.000E+00  0.000E+00  0.000E+00  1.05754E+03  4.680E-01  1.200E+01  6.000E-02  1.156E+00
   1    8    6     2     5    5.0455E+00  2.0739E-01   4.8381E+00  0.000E+00  0.000E+00  0.000E+00  1.05282E+03  4.565E-01  1.200E+01  6.000E-02  1.152E+00
   1    3    5     3     1    2.0000E+00  2.8252E-01   1.7175E+00  0.000E+00  0.000E+00  0.000E+00  1.07555E+03  1.909E+00  9.636E+00  7.227E-02  1.955E+00
   1    3    6     3     2    1.7175E+00  2.4905E-01   1.4684E+00  0.000E+00  0.000E+00  0.000E+00  1.07264E+03  1.727E+00  8.909E+00  6.682E-02  1.864E+00
   1    3    7     3     3    1.4684E+00  1.9718E-01   1.2712E+00  0.000E+00  0.000E+00  0.000E+00  1.06987E+03  1.555E+00  8.218E+00  5.547E-02  1.777E+00
   1    4    8     3     4    1.2712E+00  2.2567E-01   1.0456E+00  0.000E+00  0.000E+00  0.000E+00  1.06682E+03  1.364E+00  7.455E+00  6.709E-02  1.682E+00
   1    5    8     3     5    1.0456E+00  1.5790E-01   8.8768E-01  0.000E+00  0.000E+00  0.000E+00  1.06362E+03  1.164E+00  6.655E+00  4.991E-02  1.582E+00
   1    6    8     3     6    8.8768E-01  5.5980E-02   8.3170E-01  0.000E+00  0.000E+00  0.000E+00  1.06158E+03  1.036E+00  6.145E+00  1.844E-02  1.518E+00
   1    5   10     4     1    1.0000E+01  9.0919E-02   9.9091E+00  0.000E+00  0.000E+00  0.000E+00  1.07836E+03  6.368E-01  1.000E+01  2.500E-02  1.212E+00
   1    5    9     4     2    9.9091E+00  1.8158E-01   9.7275E+00  0.000E+00  0.000E+00  0.000E+00  1.07154E+03  6.315E-01  1.000E+01  5.000E-02  1.211E+00
   1    6    8     4     3    9.7275E+00  1.2689E-01   9.6006E+00  0.000E+00  0.000E+00  0.000E+00  1.06381E+03  6.256E-01  1.000E+01  3.500E-02  1.209E+00
   1    6    8     5     1    1.0432E+01  2.2686E-01   1.0205E+01  0.000E+00  0.000E+00  0.000E+00  1.05868E+03  6.790E-01  1.542E+01  6.166E-02  1.226E+00
   1    7    7     5     2    1.0205E+01  2.7894E-01   9.9265E+00  0.000E+00  0.000E+00  0.000E+00  1.05417E+03  6.732E-01  1.519E+01  7.594E-02  1.224E+00
   1    8    7     5     3    9.9265E+00  1.9221E-01   9.7343E+00  0.000E+00  0.000E+00  0.000E+00  1.04992E+03  6.676E-01  1.497E+01  5.241E-02  1.223E+00
   1    8    6     5     4    9.7343E+00  1.3577E-01   9.5985E+00  0.000E+00  0.000E+00  0.000E+00  1.04691E+03  6.637E-01  1.482E+01  3.706E-02  1.221E+00
   1    9    6     6     1    1.4437E+01  2.3244E-01   1.4204E+01  0.000E+00  0.000E+00  0.000E+00  1.04360E+03  8.741E-01  1.200E+01  6.000E-02  1.291E+00
   1   10    7     6     2    1.4204E+01  2.3193E-01   1.3972E+01  0.000E+00  0.000E+00  0.000E+00  1.03905E+03  8.655E-01  1.200E+01  6.000E-02  1.289E+00
   1   11    7     6     3    1.3972E+01  2.3142E-01   1.3741E+01  0.000E+00  0.000E+00  0.000E+00  1.03449E+03  8.570E-01  1.200E+01  6.000E-02  1.286E+00
   1   12    7     6     4    1.3741E+01  2.3090E-01   1.3510E+01  0.000E+00  0.000E+00  0.000E+00  1.02994E+03  8.484E-01  1.200E+01  6.000E-02  1.283E+00
   1   13    7     6     5    1.3510E+01  2.6119E-03   1.3507E+01  0.000E+00  0.000E+00  0.000E+00  1.02675E+03  8.440E-01  1.200E+01  2.400E-02  3.628E-02
   1   14    9     7     1    1.5000E+02  1.3710E+00   1.4863E+02  0.000E+00  0.000E+00  0.000E+00  1.03987E+03  2.288E+00  5.529E+01  5.593E-01  8.171E-01
   1   13    8     7     2    1.4863E+02  1.9528E+00   1.4668E+02  0.000E+00  0.000E+00  0.000E+00  1.03478E+03  2.279E+00  5.525E+01  6.147E-01  1.059E+00
   1   13    7     7     3    1.4668E+02  1.6998E+00   1.4498E+02  0.000E+00  0.000E+00  0.000E+00  1.02969E+03  2.269E+00  5.521E+01  5.584E-01  1.015E+00
   1   13    6     8     1    1.5848E+02  1.1033E+00   1.5738E+02  0.000E+00  0.000E+00  0.000E+00  1.02475E+03  2.872E+00  4.164E+01  4.243E-01  8.667E-01
   1   13    5     8     2    1.5738E+02  3.7236E-01   1.5701E+02  0.000E+00  0.000E+00  0.000E+00  1.01849E+03  2.867E+00  4.157E+01  4.236E-01  2.930E-01
   1   13    4     8     3    1.5701E+02 -1.7136E+00   1.5872E+02  0.000E+00  0.000E+00  0.000E+00  1.01225E+03  2.871E+00  4.163E+01  4.243E+00 -1.346E-01
   1   13    3     8     4    1.5872E+02 -3.3199E+00   1.6204E+02  0.000E+00  0.000E+00  0.000E+00  1.00601E+03  2.888E+00  4.188E+01  4.268E+00 -2.593E-01
   1   13    2     8     5    1.6204E+02 -2.5178E+00   1.6456E+02  0.000E+00  0.000E+00  0.000E+00  9.99783E+02  2.908E+00  4.217E+01  4.297E+00 -1.953E-01
   1   13    1     8     6    1.6456E+02 -1.9724E+00   1.6653E+02  0.000E+00  0.000E+00  0.000E+00  9.94798E+02  2.923E+00  4.238E+01  2.591E+00 -2.537E-01
   1    8    6     9     1    0.0000E+00  0.0000E+00   0.0000E+00  0.000E+00  0.000E+00  0.000E+00  1.07875E+03  0.000E+00  4.000E+00  0.000E+00  1.000E+00
   1    8    5     9     2    0.0000E+00  0.0000E+00   0.0000E+00  0.000E+00  0.000E+00  0.000E+00  1.07825E+03  0.000E+00  4.000E+00  0.000E+00  1.000E+00





UNSATURATED ZONE PACKAGE VOLUMETRIC BUDGET FOR  TIME STEP    30 STRESS PERIOD   13
  ------------------------------------------------------------------------------



     CUMULATIVE VOLUMES      L**3       RATES FOR THIS TIME STEP      L**3/T
     ------------------                 ------------------------

           IN:                                      IN:
           ---                                      ---
        INFILTRATION =  3319846307.2690          INFILTRATION =           0.8475

          OUT:                                     OUT:
          ----                                     ----
              UZF ET =   430691163.3138                UZF ET =           0.7500
        UZF RECHARGE =  2434005955.6904          UZF RECHARGE =           5.9816

            IN - OUT =   455149188.2648              IN - OUT =          -5.8841

          STORAGE:                                 STORAGE:
          --------                                 --------
      STORAGE CHANGE =   455349768.2801        STORAGE CHANGE =          -5.8841

 PERCENT DISCREPANCY IS DIFFERENCE BETWEEN IN-OUT MINUS CHANGE IN STORAGE
 DIVIDED BY THE AVERAGE OF IN AND OUT TIMES 100

 PERCENT DISCREPANCY =          -0.00     PERCENT DISCREPANCY =           0.00






1
  VOLUMETRIC BUDGET FOR AGRICULTURAL FIELDS AT  END OF TIME STEP   30, STRESS PERIOD  13
  ------------------------------------------------------------------------------

     CUMULATIVE VOLUMES      L**3       RATES FOR THIS TIME STEP      L**3/T
     ------------------                 ------------------------

           IN:                                      IN:
           ---                                      ---
               AG WELLS  =  3104902144.0000                 AG WELLS  =           0.0000
      DIVERSION SEGMENTS =   188148784.0000        DIVERSION SEGMENTS =           0.0000
           GW IRRIGATION =           0.0000             GW IRRIGATION =           0.0000
           SW IRRIGATION =           0.0000             SW IRRIGATION =           0.0000
        SYSTEM LOSSES GW =           0.0000          SYSTEM LOSSES GW =           0.0000
        SYSTEM LOSSES SW =           0.0000          SYSTEM LOSSES SW =           0.0000

                TOTAL IN =  3293050880.0000                  TOTAL IN =           0.0000

          OUT:                                     OUT:
          ----                                     ----
               AG WELLS  =           0.0000                 AG WELLS  =           0.0000
      DIVERSION SEGMENTS =           0.0000        DIVERSION SEGMENTS =           0.0000
           GW IRRIGATION =  3104902144.0000             GW IRRIGATION =           0.0000
           SW IRRIGATION =   188152464.0000             SW IRRIGATION =           0.0000
        SYSTEM LOSSES GW =           0.0000          SYSTEM LOSSES GW =           0.0000
        SYSTEM LOSSES SW =           0.0000          SYSTEM LOSSES SW =           0.0000

               TOTAL OUT =  3293054720.0000                 TOTAL OUT =           0.0000

                IN - OUT =       -3840.0000                  IN - OUT =           0.0000

     PERCENT DISCREPANCY =          -0.00         PERCENT DISCREPANCY =           0.00



1
  VOLUMETRIC BUDGET FOR ENTIRE MODEL AT END OF TIME STEP   30, STRESS PERIOD  13
  ------------------------------------------------------------------------------

     CUMULATIVE VOLUMES      L**3       RATES FOR THIS TIME STEP      L**3/T
     ------------------                 ------------------------

           IN:                                      IN:
           ---                                      ---
             STORAGE     =  3314957056.0000               STORAGE     =           7.4585
       CONSTANT HEAD     =           0.0000         CONSTANT HEAD     =           0.0000
     HEAD DEP BOUNDS     =     9112508.0000       HEAD DEP BOUNDS     =           0.2882
      STREAM LEAKAGE     =   373875872.0000        STREAM LEAKAGE     =          11.6169
        UZF RECHARGE     =  2434004224.0000          UZF RECHARGE     =           5.9816
               GW ET     =           0.0000                 GW ET     =           0.0000
     SURFACE LEAKAGE     =           0.0000       SURFACE LEAKAGE     =           0.0000
           AG WELLS      =           0.0000             AG WELLS      =           0.0000

                TOTAL IN =  6131949568.0000                  TOTAL IN =          25.3451

          OUT:                                     OUT:
          ----                                     ----
             STORAGE     =  2697746176.0000               STORAGE     =          15.5351
       CONSTANT HEAD     =           0.0000         CONSTANT HEAD     =           0.0000
     HEAD DEP BOUNDS     =     9117000.0000       HEAD DEP BOUNDS     =           0.2872
      STREAM LEAKAGE     =   320148032.0000        STREAM LEAKAGE     =           9.5238
        UZF RECHARGE     =           0.0000          UZF RECHARGE     =           0.0000
               GW ET     =           0.0000                 GW ET     =           0.0000
     SURFACE LEAKAGE     =           0.0000       SURFACE LEAKAGE     =           0.0000
           AG WELLS      =  3104902144.0000             AG WELLS      =           0.0000

               TOTAL OUT =  6131913216.0000                 TOTAL OUT =          25.3461

                IN - OUT =       36352.0000                  IN - OUT =      -1.0223E-03

     PERCENT DISCREPANCY =           0.00         PERCENT DISCREPANCY =          -0.00






         TIME SUMMARY AT END OF TIME STEP   30 IN STRESS PERIOD   13
                    SECONDS     MINUTES      HOURS       DAYS        YEARS
                    -----------------------------------------------------------
   TIME STEP LENGTH  87667.      1461.1      24.352      1.0147     2.77799E-03
 STRESS PERIOD TIME 2.63000E+06  43833.      730.56      30.440     8.33397E-02
         TOTAL TIME 3.16463E+07 5.27439E+05  8790.6      366.28      1.0028    
1
1
                            STRESS PERIOD NO.   14, LENGTH =   2630000.    
                            -----------------------------------------------

                              NUMBER OF TIME STEPS =    30

                               MULTIPLIER FOR DELT =     1.000

                            INITIAL TIME STEP SIZE =   87666.66    

 REUSING NON-PARAMETER GHB CELLS FROM LAST STRESS PERIOD

      2 GHB CELLS

 REUSING STREAM SEGMENT DATA FROM LAST STRESS PERIOD



            AREAL INFILTRATION RATE
 READING ON UNIT   19 WITH FORMAT: (FREE)              

            1           2           3           4           5           6           7           8           9          10
 ........................................................................................................................
   1   1.0000E-10  2.0000E-10   0.000       0.000       0.000       0.000       0.000       0.000       0.000       0.000    
   2   2.0000E-10  1.0000E-10  2.0000E-10   0.000       0.000      8.0000E-10  8.0000E-10  5.0000E-10   0.000       0.000    
   3    0.000      5.0000E-10  1.0000E-10  1.0000E-10  8.0000E-10  8.0000E-10  5.0000E-10  5.0000E-10   0.000       0.000    
   4   8.0000E-10  5.0000E-10  1.0000E-10  1.0000E-10  1.0000E-10  1.0000E-10  1.0000E-10  1.0000E-10  2.0000E-10   0.000    
   5   8.0000E-10  5.0000E-10  1.0000E-10  1.0000E-10  1.0000E-10  1.0000E-10  1.0000E-10  1.0000E-10  1.0000E-10  1.0000E-10
   6   8.0000E-10  5.0000E-10  5.0000E-10  2.0000E-10  2.0000E-10  1.0000E-10  1.0000E-10  1.0000E-10  1.0000E-10  5.0000E-10
   7   8.0000E-10  5.0000E-10  5.0000E-10  2.0000E-10  2.0000E-10  1.0000E-10  1.0000E-10  2.0000E-10  2.0000E-10   0.000    
   8    0.000      5.0000E-10  5.0000E-10  2.0000E-10  2.0000E-10  1.0000E-10  1.0000E-10  2.0000E-10  5.0000E-10   0.000    
   9    0.000      5.0000E-10  5.0000E-10  2.0000E-10  2.0000E-10  1.0000E-10  1.0000E-10  2.0000E-10  5.0000E-10   0.000    
  10    0.000      5.0000E-10  5.0000E-10  2.0000E-10  2.0000E-10  1.0000E-10  1.0000E-10  2.0000E-10  5.0000E-10  8.0000E-10
  11    0.000      1.0000E-10  1.0000E-10  1.0000E-10  1.0000E-10  1.0000E-10  1.0000E-10  2.0000E-10  5.0000E-10   0.000    
  12   1.0000E-10  1.0000E-10  1.0000E-10  1.0000E-10  1.0000E-10  1.0000E-10  1.0000E-10  1.0000E-10  2.0000E-10   0.000    
  13   1.0000E-10  1.0000E-10  2.0000E-10  2.0000E-10  2.0000E-10  2.0000E-10  2.0000E-10  1.0000E-10  1.0000E-10   0.000    
  14    0.000      2.0000E-10  5.0000E-10  5.0000E-10  5.0000E-10  5.0000E-10  5.0000E-10  2.0000E-10  1.0000E-10   0.000    
  15    0.000       0.000      8.0000E-10  8.0000E-10  8.0000E-10  8.0000E-10   0.000       0.000       0.000       0.000    

                  ET RATE =  5.000000E-10

 USING ET EXTINCTION DEPTH FROM PREVIOUS STRESS PERIOD. CURRENT PERIOD IS:      14

 USING EXTINCTION WATER CONTENT FROM PREVIOUS STRESS PERIOD. CURRENT PERIOD IS:      14

 USING AIR ENTRY PRESSURE FROM PREVIOUS STRESS PERIOD. CURRENT PERIOD IS:      14

 USING ROOT PRESSURE HEAD FROM PREVIOUS STRESS PERIOD. CURRENT PERIOD IS:      14

 USING ROOT ACTIVITY FROM PREVIOUS STRESS PERIOD. CURRENT PERIOD IS:      14

 PROCESSING AG STRESS PERIOD DATA

 READING AG STRESS PERIOD DATA

 READING IRRIGATION SEGMENT

 READING IRRIGATION WELL

 READING SUPPLEMENTAL WELL

 END PROCESSING AG STRESS PERIOD DATA OPTIONS
 
 SOLVING FOR HEAD 
                                                   Max.-Head-Change                         Max.-Flux-Residual
  Residual-Control   Outer-Iter.   Inner-Iter.     Column Row Layer    Maximum-Head-Change  Column Row Layer    Maximum-Flux-Residual          L2-NORM 
          0                 1           2             3    7     1       0.3178022264E-01       3    7    1         0.8405630873E+00      0.3291527856E+01
          0                 2           2             3    7     1      -0.3112185812E-02       4    7    1        -0.8605933210E-01      0.3524055227E+00
          0                 3           2             4    7     1      -0.4461164532E-03       4    6    1        -0.2407530885E-01      0.4378394844E-01
          0                 4           2             4    6     1      -0.1230675449E-03       4    7    1        -0.6603684441E-02      0.1027392259E-01
          0                 5           1             4    6     1      -0.3396683346E-04       4    6    1        -0.1822568297E-02      0.2807024424E-02

    ------------------------------------------------
       NWT REQUIRED            5 OUTER ITERATIONS 
       AND A TOTAL OF          9 INNER ITERATIONS.
    ------------------------------------------------

 NO OUTPUT CONTROL FOR STRESS PERIOD   14   TIME STEP    1
 
 SOLVING FOR HEAD 
                                                   Max.-Head-Change                         Max.-Flux-Residual
  Residual-Control   Outer-Iter.   Inner-Iter.     Column Row Layer    Maximum-Head-Change  Column Row Layer    Maximum-Flux-Residual          L2-NORM 
          0                 1           2             3    7     1       0.3124048889E-01       3    7    1         0.8261722279E+00      0.3240489189E+01
          0                 2           2             3    7     1      -0.3058050700E-02       3    7    1        -0.8261749706E-01      0.3446653289E+00
          0                 3           2             4    7     1      -0.4100816066E-03       4    7    1        -0.2211356217E-01      0.4129508344E-01
          0                 4           1             4    7     1      -0.1128422736E-03       4    7    1        -0.6066262207E-02      0.9506928449E-02
          0                 5           1             4    7     1      -0.3105835617E-04       4    7    1        -0.1670005528E-02      0.2588710154E-02

    ------------------------------------------------
       NWT REQUIRED            5 OUTER ITERATIONS 
       AND A TOTAL OF          8 INNER ITERATIONS.
    ------------------------------------------------

 NO OUTPUT CONTROL FOR STRESS PERIOD   14   TIME STEP    2
 
 SOLVING FOR HEAD 
                                                   Max.-Head-Change                         Max.-Flux-Residual
  Residual-Control   Outer-Iter.   Inner-Iter.     Column Row Layer    Maximum-Head-Change  Column Row Layer    Maximum-Flux-Residual          L2-NORM 
          0                 1           2             3    7     1       0.3071606445E-01       3    7    1         0.8121890071E+00      0.3192603194E+01
          0                 2           2             3    7     1      -0.3005447407E-02       3    7    1        -0.8121917457E-01      0.3377001170E+00
          0                 3           2             4    7     1      -0.3750207911E-03       4    7    1        -0.2026617633E-01      0.3911829129E-01
          0                 4           1             4    7     1      -0.1029193338E-03       4    7    1        -0.5543515061E-02      0.8831588121E-02
          0                 5           1             4    7     1      -0.2825135443E-04       4    7    1        -0.1522067293E-02      0.2395973602E-02

    ------------------------------------------------
       NWT REQUIRED            5 OUTER ITERATIONS 
       AND A TOTAL OF          8 INNER ITERATIONS.
    ------------------------------------------------

 NO OUTPUT CONTROL FOR STRESS PERIOD   14   TIME STEP    3
 
 SOLVING FOR HEAD 
                                                   Max.-Head-Change                         Max.-Flux-Residual
  Residual-Control   Outer-Iter.   Inner-Iter.     Column Row Layer    Maximum-Head-Change  Column Row Layer    Maximum-Flux-Residual          L2-NORM 
          0                 1           2             3    7     1       0.3020647677E-01       3    7    1         0.7986010614E+00      0.3147074473E+01
          0                 2           2             3    7     1      -0.2954331083E-02       3    7    1        -0.7986037933E-01      0.3313958556E+00
          0                 3           2             4    7     1      -0.3409536415E-03       4    7    1        -0.1846982761E-01      0.3724963530E-01
          0                 4           1             4    7     1      -0.9328666042E-04       4    7    1        -0.5035715197E-02      0.8251136638E-02

    ------------------------------------------------
       NWT REQUIRED            4 OUTER ITERATIONS 
       AND A TOTAL OF          7 INNER ITERATIONS.
    ------------------------------------------------

 NO OUTPUT CONTROL FOR STRESS PERIOD   14   TIME STEP    4
 
 SOLVING FOR HEAD 
                                                   Max.-Head-Change                         Max.-Flux-Residual
  Residual-Control   Outer-Iter.   Inner-Iter.     Column Row Layer    Maximum-Head-Change  Column Row Layer    Maximum-Flux-Residual          L2-NORM 
          0                 1           2             3    7     1       0.2971175903E-01       3    7    1         0.7854096211E+00      0.3103751633E+01
          0                 2           2             3    7     1      -0.2904708223E-02       3    7    1        -0.7854123439E-01      0.3257135268E+00
          0                 3           2             4    7     1      -0.3079450075E-03       4    7    1        -0.1672821454E-01      0.3569148644E-01
          0                 4           1             4    7     1      -0.8396067366E-04       4    7    1        -0.4543801278E-02      0.7770534479E-02

    ------------------------------------------------
       NWT REQUIRED            4 OUTER ITERATIONS 
       AND A TOTAL OF          7 INNER ITERATIONS.
    ------------------------------------------------

 NO OUTPUT CONTROL FOR STRESS PERIOD   14   TIME STEP    5
 
 SOLVING FOR HEAD 
                                                   Max.-Head-Change                         Max.-Flux-Residual
  Residual-Control   Outer-Iter.   Inner-Iter.     Column Row Layer    Maximum-Head-Change  Column Row Layer    Maximum-Flux-Residual          L2-NORM 
          0                 1           2             3    7     1       0.2923089910E-01       3    7    1         0.7725876632E+00      0.3062498399E+01
          0                 2           2             3    7     1      -0.2856477093E-02       3    7    1        -0.7725903743E-01      0.3206010203E+00
          0                 3           2             5    8     1       0.3125975749E-03       5    8    1         0.1698537275E-01      0.3443186801E-01
          0                 4           1             5    8     1       0.8375668121E-04       5    8    1         0.4598948158E-02      0.7389905601E-02

    ------------------------------------------------
       NWT REQUIRED            4 OUTER ITERATIONS 
       AND A TOTAL OF          7 INNER ITERATIONS.
    ------------------------------------------------

 NO OUTPUT CONTROL FOR STRESS PERIOD   14   TIME STEP    6
 
 SOLVING FOR HEAD 
                                                   Max.-Head-Change                         Max.-Flux-Residual
  Residual-Control   Outer-Iter.   Inner-Iter.     Column Row Layer    Maximum-Head-Change  Column Row Layer    Maximum-Flux-Residual          L2-NORM 
          0                 1           2             3    7     1       0.2876369116E-01       3    7    1         0.7601297815E+00      0.3023183581E+01
          0                 2           2             3    7     1      -0.2809617101E-02       3    7    1        -0.7601324790E-01      0.3160149434E+00
          0                 3           2             5    8     1       0.3188291572E-03       5    8    1         0.1730384020E-01      0.3346015861E-01
          0                 4           1             5    8     1       0.8560388295E-04       5    8    1         0.4692960883E-02      0.7109266870E-02

    ------------------------------------------------
       NWT REQUIRED            4 OUTER ITERATIONS 
       AND A TOTAL OF          7 INNER ITERATIONS.
    ------------------------------------------------

 NO OUTPUT CONTROL FOR STRESS PERIOD   14   TIME STEP    7
 
 SOLVING FOR HEAD 
                                                   Max.-Head-Change                         Max.-Flux-Residual
  Residual-Control   Outer-Iter.   Inner-Iter.     Column Row Layer    Maximum-Head-Change  Column Row Layer    Maximum-Flux-Residual          L2-NORM 
          0                 1           2             3    7     1       0.2830968668E-01       3    7    1         0.7480242256E+00      0.2985682698E+01
          0                 2           2             3    7     1      -0.2764085302E-02       3    7    1        -0.7480269073E-01      0.3119146959E+00
          0                 3           2             5    8     1       0.3248159599E-03       5    8    1         0.1760980622E-01      0.3276212101E-01
          0                 4           1             5    8     1       0.8737856224E-04       5    8    1         0.4783280665E-02      0.6926269612E-02

    ------------------------------------------------
       NWT REQUIRED            4 OUTER ITERATIONS 
       AND A TOTAL OF          7 INNER ITERATIONS.
    ------------------------------------------------

 NO OUTPUT CONTROL FOR STRESS PERIOD   14   TIME STEP    8
 
 SOLVING FOR HEAD 
                                                   Max.-Head-Change                         Max.-Flux-Residual
  Residual-Control   Outer-Iter.   Inner-Iter.     Column Row Layer    Maximum-Head-Change  Column Row Layer    Maximum-Flux-Residual          L2-NORM 
          0                 1           2             3    7     1       0.2786868847E-01       3    7    1         0.7362657849E+00      0.2949898267E+01
          0                 2           2             3    7     1      -0.2719862078E-02       3    7    1        -0.7362684489E-01      0.3082638702E+00
          0                 3           2             5    8     1       0.3305759489E-03       5    8    1         0.1790422163E-01      0.3231989502E-01
          0                 4           1             5    8     1       0.8908578821E-04       5    8    1         0.4870174991E-02      0.6835740255E-02

    ------------------------------------------------
       NWT REQUIRED            4 OUTER ITERATIONS 
       AND A TOTAL OF          7 INNER ITERATIONS.
    ------------------------------------------------

 NO OUTPUT CONTROL FOR STRESS PERIOD   14   TIME STEP    9
 
 SOLVING FOR HEAD 
                                                   Max.-Head-Change                         Max.-Flux-Residual
  Residual-Control   Outer-Iter.   Inner-Iter.     Column Row Layer    Maximum-Head-Change  Column Row Layer    Maximum-Flux-Residual          L2-NORM 
          0                 1           2             3    7     1       0.2743977715E-01       3    7    1         0.7248300462E+00      0.2915707314E+01
          0                 2           2             3    7     1      -0.2676856956E-02       3    7    1        -0.7248326909E-01      0.3050230634E+00
          0                 3           2             5    8     1       0.3361156191E-03       5    8    1         0.1818741121E-01      0.3211035049E-01
          0                 4           1             5    8     1       0.9072754611E-04       5    8    1         0.4953742698E-02      0.6829217651E-02

    ------------------------------------------------
       NWT REQUIRED            4 OUTER ITERATIONS 
       AND A TOTAL OF          7 INNER ITERATIONS.
    ------------------------------------------------

 NO OUTPUT CONTROL FOR STRESS PERIOD   14   TIME STEP   10
 
 SOLVING FOR HEAD 
                                                   Max.-Head-Change                         Max.-Flux-Residual
  Residual-Control   Outer-Iter.   Inner-Iter.     Column Row Layer    Maximum-Head-Change  Column Row Layer    Maximum-Flux-Residual          L2-NORM 
          0                 1           2             3    7     1       0.2702326861E-01       3    7    1         0.7137254134E+00      0.2883033907E+01
          0                 2           2             3    7     1      -0.2635100491E-02       3    7    1        -0.7137280372E-01      0.3021597818E+00
          0                 3           2             5    8     1       0.3414319040E-03       5    8    1         0.1845916402E-01      0.3210898619E-01
          0                 4           1             5    8     1       0.9230332322E-04       5    8    1         0.5033943146E-02      0.6896456436E-02

    ------------------------------------------------
       NWT REQUIRED            4 OUTER ITERATIONS 
       AND A TOTAL OF          7 INNER ITERATIONS.
    ------------------------------------------------

 NO OUTPUT CONTROL FOR STRESS PERIOD   14   TIME STEP   11
 
 SOLVING FOR HEAD 
                                                   Max.-Head-Change                         Max.-Flux-Residual
  Residual-Control   Outer-Iter.   Inner-Iter.     Column Row Layer    Maximum-Head-Change  Column Row Layer    Maximum-Flux-Residual          L2-NORM 
          0                 1           2             3    7     1       0.2661825647E-01       6    8    1         0.7034719937E+00      0.2851780248E+01
          0                 2           2             3    7     1      -0.2594503736E-02       5    8    1         0.7187695813E-01      0.2996410090E+00
          0                 3           2             5    8     1       0.3465435328E-03       5    8    1         0.1872046466E-01      0.3228990502E-01
          0                 4           1             5    8     1       0.9381843789E-04       5    8    1         0.5111055829E-02      0.7026191016E-02

    ------------------------------------------------
       NWT REQUIRED            4 OUTER ITERATIONS 
       AND A TOTAL OF          7 INNER ITERATIONS.
    ------------------------------------------------

 NO OUTPUT CONTROL FOR STRESS PERIOD   14   TIME STEP   12
 
 SOLVING FOR HEAD 
                                                   Max.-Head-Change                         Max.-Flux-Residual
  Residual-Control   Outer-Iter.   Inner-Iter.     Column Row Layer    Maximum-Head-Change  Column Row Layer    Maximum-Flux-Residual          L2-NORM 
          0                 1           2             3    7     1       0.2622482689E-01       6    8    1         0.6943825606E+00      0.2821861503E+01
          0                 2           2             3    7     1      -0.2555074247E-02       5    8    1         0.7268146416E-01      0.2974355533E+00
          0                 3           2             5    8     1       0.3514469448E-03       5    8    1         0.1897109001E-01      0.3262665189E-01
          0                 4           1             5    8     1       0.9526557989E-04       5    8    1         0.5185031392E-02      0.7198191028E-02

    ------------------------------------------------
       NWT REQUIRED            4 OUTER ITERATIONS 
       AND A TOTAL OF          7 INNER ITERATIONS.
    ------------------------------------------------

 NO OUTPUT CONTROL FOR STRESS PERIOD   14   TIME STEP   13
 
 SOLVING FOR HEAD 
                                                   Max.-Head-Change                         Max.-Flux-Residual
  Residual-Control   Outer-Iter.   Inner-Iter.     Column Row Layer    Maximum-Head-Change  Column Row Layer    Maximum-Flux-Residual          L2-NORM 
          0                 1           2             3    7     1       0.2584215221E-01       6    8    1         0.6855921090E+00      0.2793201687E+01
          0                 2           2             3    7     1      -0.2516695887E-02       5    8    1         0.7345058576E-01      0.2954980780E+00
          0                 3           2             5    8     1       0.3561026885E-03       5    8    1         0.1920994060E-01      0.3307294269E-01
          0                 4           1             5    8     1       0.9664508336E-04       5    8    1         0.5255184007E-02      0.7417729365E-02

    ------------------------------------------------
       NWT REQUIRED            4 OUTER ITERATIONS 
       AND A TOTAL OF          7 INNER ITERATIONS.
    ------------------------------------------------

 NO OUTPUT CONTROL FOR STRESS PERIOD   14   TIME STEP   14
 
 SOLVING FOR HEAD 
                                                   Max.-Head-Change                         Max.-Flux-Residual
  Residual-Control   Outer-Iter.   Inner-Iter.     Column Row Layer    Maximum-Head-Change  Column Row Layer    Maximum-Flux-Residual          L2-NORM 
          0                 1           2             3    7     1       0.2547039903E-01       6    8    1         0.6770961817E+00      0.2765705762E+01
          0                 2           2             3    7     1      -0.2479432955E-02       5    8    1         0.7418486633E-01      0.2938212379E+00
          0                 3           2             5    8     1       0.3605778318E-03       5    8    1         0.1943876140E-01      0.3363989418E-01
          0                 4           1             5    8     1       0.9797178388E-04       5    8    1         0.5322692461E-02      0.7667462594E-02

    ------------------------------------------------
       NWT REQUIRED            4 OUTER ITERATIONS 
       AND A TOTAL OF          7 INNER ITERATIONS.
    ------------------------------------------------

 NO OUTPUT CONTROL FOR STRESS PERIOD   14   TIME STEP   15
 
 SOLVING FOR HEAD 
                                                   Max.-Head-Change                         Max.-Flux-Residual
  Residual-Control   Outer-Iter.   Inner-Iter.     Column Row Layer    Maximum-Head-Change  Column Row Layer    Maximum-Flux-Residual          L2-NORM 
          0                 1           2             3    7     1       0.2510891191E-01       6    8    1         0.6688829987E+00      0.2739338015E+01
          0                 2           2             3    7     1      -0.2443210079E-02       5    8    1         0.7488873537E-01      0.2923803025E+00
          0                 3           2             5    8     1       0.3648722170E-03       5    8    1         0.1965828771E-01      0.3429453350E-01
          0                 4           1             5    8     1       0.9924531817E-04       5    8    1         0.5387480045E-02      0.7940260975E-02

    ------------------------------------------------
       NWT REQUIRED            4 OUTER ITERATIONS 
       AND A TOTAL OF          7 INNER ITERATIONS.
    ------------------------------------------------

 NO OUTPUT CONTROL FOR STRESS PERIOD   14   TIME STEP   16
 
 SOLVING FOR HEAD 
                                                   Max.-Head-Change                         Max.-Flux-Residual
  Residual-Control   Outer-Iter.   Inner-Iter.     Column Row Layer    Maximum-Head-Change  Column Row Layer    Maximum-Flux-Residual          L2-NORM 
          0                 1           2             3    7     1       0.2475755544E-01       6    8    1         0.6609417042E+00      0.2714018408E+01
          0                 2           2             3    7     1      -0.2408013143E-02       5    8    1         0.7555938686E-01      0.2911501213E+00
          0                 3           2             5    8     1       0.3689745628E-03       5    8    1         0.1986785847E-01      0.3501747537E-01
          0                 4           1             5    8     1       0.1004629755E-03       5    8    1         0.5449385541E-02      0.8229680142E-02
          0                 5           1             5    8     1       0.2737564338E-04       5    8    1         0.1482374276E-02      0.2256925287E-02

    ------------------------------------------------
       NWT REQUIRED            5 OUTER ITERATIONS 
       AND A TOTAL OF          8 INNER ITERATIONS.
    ------------------------------------------------

 NO OUTPUT CONTROL FOR STRESS PERIOD   14   TIME STEP   17
 
 SOLVING FOR HEAD 
                                                   Max.-Head-Change                         Max.-Flux-Residual
  Residual-Control   Outer-Iter.   Inner-Iter.     Column Row Layer    Maximum-Head-Change  Column Row Layer    Maximum-Flux-Residual          L2-NORM 
          0                 1           2             3    7     1       0.2441599771E-01       6    8    1         0.6532772121E+00      0.2689721649E+01
          0                 2           2             3    7     1      -0.2373806284E-02       5    8    1         0.7618422885E-01      0.2901047761E+00
          0                 3           2             5    8     1       0.3728224355E-03       5    8    1         0.2006405141E-01      0.3578790847E-01
          0                 4           1             5    8     1       0.1016080018E-03       5    8    1         0.5507491250E-02      0.8527006013E-02
          0                 5           1             5    8     1       0.2771459087E-04       5    8    1         0.1499658785E-02      0.2343786778E-02

    ------------------------------------------------
       NWT REQUIRED            5 OUTER ITERATIONS 
       AND A TOTAL OF          8 INNER ITERATIONS.
    ------------------------------------------------

 NO OUTPUT CONTROL FOR STRESS PERIOD   14   TIME STEP   18
 
 SOLVING FOR HEAD 
                                                   Max.-Head-Change                         Max.-Flux-Residual
  Residual-Control   Outer-Iter.   Inner-Iter.     Column Row Layer    Maximum-Head-Change  Column Row Layer    Maximum-Flux-Residual          L2-NORM 
          0                 1           2             3    7     1       0.2408387322E-01       6    8    1         0.6458616797E+00      0.2666361330E+01
          0                 2           2             3    7     1      -0.2340555241E-02       5    8    1         0.7678229736E-01      0.2892287247E+00
          0                 3           2             5    8     1       0.3765106196E-03       5    8    1         0.2025205245E-01      0.3659619477E-01
          0                 4           1             5    8     1       0.1027059417E-03       5    8    1         0.5563191489E-02      0.8830891662E-02
          0                 5           1             5    8     1       0.2803974123E-04       5    8    1         0.1516234067E-02      0.2432749552E-02

    ------------------------------------------------
       NWT REQUIRED            5 OUTER ITERATIONS 
       AND A TOTAL OF          8 INNER ITERATIONS.
    ------------------------------------------------

 NO OUTPUT CONTROL FOR STRESS PERIOD   14   TIME STEP   19
 
 SOLVING FOR HEAD 
                                                   Max.-Head-Change                         Max.-Flux-Residual
  Residual-Control   Outer-Iter.   Inner-Iter.     Column Row Layer    Maximum-Head-Change  Column Row Layer    Maximum-Flux-Residual          L2-NORM 
          0                 1           2             3    7     1       0.2376083518E-01       6    8    1         0.6386855560E+00      0.2643892265E+01
          0                 2           2             3    7     1      -0.2308224885E-02       5    8    1         0.7735476441E-01      0.2885038249E+00
          0                 3           2             5    8     1       0.3800462249E-03       5    8    1         0.2043221608E-01      0.3743040346E-01
          0                 4           1             5    8     1       0.1037589464E-03       5    8    1         0.5616594209E-02      0.9137203540E-02
          0                 5           1             5    8     1       0.2835169773E-04       5    8    1         0.1532132700E-02      0.2522095396E-02

    ------------------------------------------------
       NWT REQUIRED            5 OUTER ITERATIONS 
       AND A TOTAL OF          8 INNER ITERATIONS.
    ------------------------------------------------

 NO OUTPUT CONTROL FOR STRESS PERIOD   14   TIME STEP   20
 
 SOLVING FOR HEAD 
                                                   Max.-Head-Change                         Max.-Flux-Residual
  Residual-Control   Outer-Iter.   Inner-Iter.     Column Row Layer    Maximum-Head-Change  Column Row Layer    Maximum-Flux-Residual          L2-NORM 
          0                 1           2             3    7     1       0.2344655123E-01       6    8    1         0.6317394592E+00      0.2622263164E+01
          0                 2           2             3    7     1      -0.2276781107E-02       5    8    1         0.7790257719E-01      0.2879204628E+00
          0                 3           2             5    8     1       0.3834330446E-03       5    8    1         0.2060478225E-01      0.3827307946E-01
          0                 4           1             5    8     1       0.1047677488E-03       5    8    1         0.5667752094E-02      0.9440104807E-02
          0                 5           1             5    8     1       0.2865054728E-04       5    8    1         0.1547364234E-02      0.2610121276E-02

    ------------------------------------------------
       NWT REQUIRED            5 OUTER ITERATIONS 
       AND A TOTAL OF          8 INNER ITERATIONS.
    ------------------------------------------------

 NO OUTPUT CONTROL FOR STRESS PERIOD   14   TIME STEP   21
 
 SOLVING FOR HEAD 
                                                   Max.-Head-Change                         Max.-Flux-Residual
  Residual-Control   Outer-Iter.   Inner-Iter.     Column Row Layer    Maximum-Head-Change  Column Row Layer    Maximum-Flux-Residual          L2-NORM 
          0                 1           2             3    7     1       0.2314069985E-01       6    8    1         0.6250146800E+00      0.2601400945E+01
          0                 2           2             3    7     1      -0.2246191776E-02       5    8    1         0.7842655056E-01      0.2874291666E+00
          0                 3           2             5    8     1       0.3866778425E-03       5    8    1         0.2077004710E-01      0.3913127554E-01
          0                 4           1             5    8     1       0.1057348874E-03       5    8    1         0.5716772189E-02      0.9743920361E-02
          0                 5           1             5    8     1       0.2893724607E-04       5    8    1         0.1561969134E-02      0.2698241239E-02

    ------------------------------------------------
       NWT REQUIRED            5 OUTER ITERATIONS 
       AND A TOTAL OF          8 INNER ITERATIONS.
    ------------------------------------------------

 NO OUTPUT CONTROL FOR STRESS PERIOD   14   TIME STEP   22
 
 SOLVING FOR HEAD 
                                                   Max.-Head-Change                         Max.-Flux-Residual
  Residual-Control   Outer-Iter.   Inner-Iter.     Column Row Layer    Maximum-Head-Change  Column Row Layer    Maximum-Flux-Residual          L2-NORM 
          0                 1           2             3    7     1       0.2284321378E-01       6    8    1         0.6185105944E+00      0.2581290389E+01
          0                 2           2             3    7     1      -0.2216449818E-02       5    8    1         0.7892766051E-01      0.2870547264E+00
          0                 3           2             5    8     1       0.3897851320E-03       5    8    1         0.2092827401E-01      0.3998822331E-01
          0                 4           1             5    8     1       0.1066613400E-03       5    8    1         0.5763719158E-02      0.1004267625E-01
          0                 5           1             5    8     1       0.2921194678E-04       5    8    1         0.1575960668E-02      0.2784723082E-02

    ------------------------------------------------
       NWT REQUIRED            5 OUTER ITERATIONS 
       AND A TOTAL OF          8 INNER ITERATIONS.
    ------------------------------------------------

 NO OUTPUT CONTROL FOR STRESS PERIOD   14   TIME STEP   23
 
 SOLVING FOR HEAD 
                                                   Max.-Head-Change                         Max.-Flux-Residual
  Residual-Control   Outer-Iter.   Inner-Iter.     Column Row Layer    Maximum-Head-Change  Column Row Layer    Maximum-Flux-Residual          L2-NORM 
          0                 1           2             3    7     1       0.2255354529E-01       6    8    1         0.6122027295E+00      0.2561883579E+01
          0                 2           2             3    7     1      -0.2187499895E-02       5    8    1         0.7940458053E-01      0.2867707546E+00
          0                 3           2             5    8     1       0.3927502008E-03       5    8    1         0.2107917093E-01      0.4084041450E-01
          0                 4           1             5    8     1       0.1075461283E-03       5    8    1         0.5808527393E-02      0.1033584884E-01
          0                 5           1             5    8     1       0.2947447471E-04       5    8    1         0.1589325656E-02      0.2869414551E-02

    ------------------------------------------------
       NWT REQUIRED            5 OUTER ITERATIONS 
       AND A TOTAL OF          8 INNER ITERATIONS.
    ------------------------------------------------

 NO OUTPUT CONTROL FOR STRESS PERIOD   14   TIME STEP   24
 
 SOLVING FOR HEAD 
                                                   Max.-Head-Change                         Max.-Flux-Residual
  Residual-Control   Outer-Iter.   Inner-Iter.     Column Row Layer    Maximum-Head-Change  Column Row Layer    Maximum-Flux-Residual          L2-NORM 
          0                 1           2             3    7     1       0.2227164921E-01       6    8    1         0.6060988004E+00      0.2543153499E+01
          0                 2           2             3    7     1      -0.2159336963E-02       5    8    1         0.7986247432E-01      0.2865675698E+00
          0                 3           2             5    8     1       0.3955978774E-03       5    8    1         0.2122410488E-01      0.4168398216E-01
          0                 4           1             5    8     1       0.1083958737E-03       5    8    1         0.5851561084E-02      0.1062264947E-01
          0                 5           1             5    8     1       0.2972659890E-04       5    8    1         0.1602161262E-02      0.2952120691E-02

    ------------------------------------------------
       NWT REQUIRED            5 OUTER ITERATIONS 
       AND A TOTAL OF          8 INNER ITERATIONS.
    ------------------------------------------------

 NO OUTPUT CONTROL FOR STRESS PERIOD   14   TIME STEP   25
 
 SOLVING FOR HEAD 
                                                   Max.-Head-Change                         Max.-Flux-Residual
  Residual-Control   Outer-Iter.   Inner-Iter.     Column Row Layer    Maximum-Head-Change  Column Row Layer    Maximum-Flux-Residual          L2-NORM 
          0                 1           2             3    7     1       0.2199724022E-01       6    8    1         0.6001835773E+00      0.2525057010E+01
          0                 2           2             3    7     1      -0.2131932616E-02       5    8    1         0.8029768834E-01      0.2864320302E+00
          0                 3           2             5    8     1       0.3983121853E-03       5    8    1         0.2136216533E-01      0.4251427806E-01
          0                 4           1             5    8     1       0.1092065440E-03       5    8    1         0.5892589129E-02      0.1090204317E-01
          0                 5           1             5    8     1       0.2996730489E-04       5    8    1         0.1614409221E-02      0.3032543657E-02

    ------------------------------------------------
       NWT REQUIRED            5 OUTER ITERATIONS 
       AND A TOTAL OF          8 INNER ITERATIONS.
    ------------------------------------------------

 NO OUTPUT CONTROL FOR STRESS PERIOD   14   TIME STEP   26
 
 SOLVING FOR HEAD 
                                                   Max.-Head-Change                         Max.-Flux-Residual
  Residual-Control   Outer-Iter.   Inner-Iter.     Column Row Layer    Maximum-Head-Change  Column Row Layer    Maximum-Flux-Residual          L2-NORM 
          0                 1           2             3    7     1       0.2173004543E-01       6    8    1         0.5944497246E+00      0.2507561900E+01
          0                 2           2             3    7     1      -0.2105258688E-02       5    8    1         0.8071110377E-01      0.2863548355E+00
          0                 3           2             5    8     1       0.4008976147E-03       5    8    1         0.2149359458E-01      0.4332864969E-01
          0                 4           1             5    8     1       0.1099793823E-03       5    8    1         0.5931677904E-02      0.1117359693E-01
          0                 5           1             5    8     1       0.3019693984E-04       5    8    1         0.1626087974E-02      0.3110612977E-02

    ------------------------------------------------
       NWT REQUIRED            5 OUTER ITERATIONS 
       AND A TOTAL OF          8 INNER ITERATIONS.
    ------------------------------------------------

 NO OUTPUT CONTROL FOR STRESS PERIOD   14   TIME STEP   27
 
 SOLVING FOR HEAD 
                                                   Max.-Head-Change                         Max.-Flux-Residual
  Residual-Control   Outer-Iter.   Inner-Iter.     Column Row Layer    Maximum-Head-Change  Column Row Layer    Maximum-Flux-Residual          L2-NORM 
          0                 1           2             3    7     1       0.2146980085E-01       6    8    1         0.5888974709E+00      0.2490641873E+01
          0                 2           2             3    7     1      -0.2079288906E-02       5    8    1         0.8110776360E-01      0.2863280453E+00
          0                 3           2             5    8     1       0.4033797522E-03       5    8    1         0.2161977742E-01      0.4412505923E-01
          0                 4           1             5    8     1       0.1107213820E-03       5    8    1         0.5969205263E-02      0.1143700303E-01
          0                 5           1             5    8     1       0.3041741773E-04       5    8    1         0.1637300863E-02      0.3186246721E-02

    ------------------------------------------------
       NWT REQUIRED            5 OUTER ITERATIONS 
       AND A TOTAL OF          8 INNER ITERATIONS.
    ------------------------------------------------

 NO OUTPUT CONTROL FOR STRESS PERIOD   14   TIME STEP   28
 
 SOLVING FOR HEAD 
                                                   Max.-Head-Change                         Max.-Flux-Residual
  Residual-Control   Outer-Iter.   Inner-Iter.     Column Row Layer    Maximum-Head-Change  Column Row Layer    Maximum-Flux-Residual          L2-NORM 
          0                 1           2             3    7     1       0.2121625192E-01       6    8    1         0.5835124830E+00      0.2474265951E+01
          0                 2           2             3    7     1      -0.2053997449E-02       5    8    1         0.8148388061E-01      0.2863424316E+00
          0                 3           2             5    8     1       0.4057404998E-03       5    8    1         0.2173971482E-01      0.4490115121E-01
          0                 4           1             5    8     1       0.1114277496E-03       5    8    1         0.6004906057E-02      0.1169186274E-01
          0                 5           1             5    8     1       0.3062746874E-04       5    8    1         0.1647977651E-02      0.3259348603E-02

    ------------------------------------------------
       NWT REQUIRED            5 OUTER ITERATIONS 
       AND A TOTAL OF          8 INNER ITERATIONS.
    ------------------------------------------------

 NO OUTPUT CONTROL FOR STRESS PERIOD   14   TIME STEP   29
 
 SOLVING FOR HEAD 
                                                   Max.-Head-Change                         Max.-Flux-Residual
  Residual-Control   Outer-Iter.   Inner-Iter.     Column Row Layer    Maximum-Head-Change  Column Row Layer    Maximum-Flux-Residual          L2-NORM 
          0                 1           2             3    7     1       0.2096915105E-01       6    8    1         0.5782956211E+00      0.2458395639E+01
          0                 2           2             3    7     1      -0.2029359169E-02       5    8    1         0.8184031648E-01      0.2863909635E+00
          0                 3           2             5    8     1       0.4079853784E-03       5    8    1         0.2185368027E-01      0.4565614467E-01
          0                 4           1             5    8     1       0.1121001694E-03       5    8    1         0.6038864313E-02      0.1193820775E-01
          0                 5           1             5    8     1       0.3082760159E-04       5    8    1         0.1658143927E-02      0.3329940894E-02

    ------------------------------------------------
       NWT REQUIRED            5 OUTER ITERATIONS 
       AND A TOTAL OF          8 INNER ITERATIONS.
    ------------------------------------------------

 NO OUTPUT CONTROL FOR STRESS PERIOD   14   TIME STEP   30



 STREAM LISTING     PERIOD     14   STEP       30

 LAYER ROW COL. STREAM  RCH.  FLOW INTO     FLOW TO   FLOW OUT OF   OVRLND.     DIRECT     STREAM       STREAM     STREAM     STREAM   STREAMBED  STREAMBED
                SEG.NO.  NO.  STRM. RCH.    AQUIFER    STRM. RCH.    RUNOFF     PRECIP       ET          HEAD       DEPTH      WIDTH   CONDCTNC.   GRADIENT

   1    1    1     1     1    7.1251E+00  1.2038E-01   7.0047E+00  0.000E+00  0.000E+00  0.000E+00  1.09385E+03  8.024E-01  7.035E+00  3.166E-02  1.267E+00
   1    2    2     1     2    7.0047E+00  1.8492E-01   6.8198E+00  0.000E+00  0.000E+00  0.000E+00  1.08886E+03  7.976E-01  6.956E+00  4.869E-02  1.266E+00
   1    3    3     1     3    6.8198E+00  1.5635E-01   6.6635E+00  0.000E+00  0.000E+00  0.000E+00  1.08321E+03  7.929E-01  6.870E+00  4.122E-02  1.264E+00
   1    3    4     1     4    6.6635E+00  1.4286E-01   6.5206E+00  0.000E+00  0.000E+00  0.000E+00  1.07820E+03  7.886E-01  6.794E+00  3.771E-02  1.263E+00
   1    4    5     2     1    4.5206E+00  2.6715E-01   4.2534E+00  0.000E+00  0.000E+00  0.000E+00  1.07236E+03  4.251E-01  1.200E+01  7.800E-02  1.142E+00
   1    5    6     2     2    4.2534E+00  2.0467E-01   4.0488E+00  0.000E+00  0.000E+00  0.000E+00  1.06692E+03  4.112E-01  1.200E+01  6.000E-02  1.137E+00
   1    6    6     2     3    4.0488E+00  2.0394E-01   3.8448E+00  0.000E+00  0.000E+00  0.000E+00  1.06219E+03  3.989E-01  1.200E+01  6.000E-02  1.133E+00
   1    7    6     2     4    3.8448E+00  2.0319E-01   3.6417E+00  0.000E+00  0.000E+00  0.000E+00  1.05746E+03  3.865E-01  1.200E+01  6.000E-02  1.129E+00
   1    8    6     2     5    3.6417E+00  2.0242E-01   3.4392E+00  0.000E+00  0.000E+00  0.000E+00  1.05273E+03  3.737E-01  1.200E+01  6.000E-02  1.125E+00
   1    3    5     3     1    2.0000E+00  2.8252E-01   1.7175E+00  0.000E+00  0.000E+00  0.000E+00  1.07555E+03  1.909E+00  9.636E+00  7.227E-02  1.955E+00
   1    3    6     3     2    1.7175E+00  2.4905E-01   1.4684E+00  0.000E+00  0.000E+00  0.000E+00  1.07264E+03  1.727E+00  8.909E+00  6.682E-02  1.864E+00
   1    3    7     3     3    1.4684E+00  1.9718E-01   1.2712E+00  0.000E+00  0.000E+00  0.000E+00  1.06987E+03  1.555E+00  8.218E+00  5.547E-02  1.777E+00
   1    4    8     3     4    1.2712E+00  2.2567E-01   1.0456E+00  0.000E+00  0.000E+00  0.000E+00  1.06682E+03  1.364E+00  7.455E+00  6.709E-02  1.682E+00
   1    5    8     3     5    1.0456E+00  1.5790E-01   8.8768E-01  0.000E+00  0.000E+00  0.000E+00  1.06362E+03  1.164E+00  6.655E+00  4.991E-02  1.582E+00
   1    6    8     3     6    8.8768E-01  5.5980E-02   8.3170E-01  0.000E+00  0.000E+00  0.000E+00  1.06158E+03  1.036E+00  6.145E+00  1.844E-02  1.518E+00
   1    5   10     4     1    1.0000E+01  9.0919E-02   9.9091E+00  0.000E+00  0.000E+00  0.000E+00  1.07836E+03  6.368E-01  1.000E+01  2.500E-02  1.212E+00
   1    5    9     4     2    9.9091E+00  1.8158E-01   9.7275E+00  0.000E+00  0.000E+00  0.000E+00  1.07154E+03  6.315E-01  1.000E+01  5.000E-02  1.211E+00
   1    6    8     4     3    9.7275E+00  1.2689E-01   9.6006E+00  0.000E+00  0.000E+00  0.000E+00  1.06381E+03  6.256E-01  1.000E+01  3.500E-02  1.209E+00
   1    6    8     5     1    1.0432E+01  2.2686E-01   1.0205E+01  0.000E+00  0.000E+00  0.000E+00  1.05868E+03  6.790E-01  1.542E+01  6.166E-02  1.226E+00
   1    7    7     5     2    1.0205E+01  2.7894E-01   9.9265E+00  0.000E+00  0.000E+00  0.000E+00  1.05417E+03  6.732E-01  1.519E+01  7.594E-02  1.224E+00
   1    8    7     5     3    9.9265E+00  1.9221E-01   9.7343E+00  0.000E+00  0.000E+00  0.000E+00  1.04992E+03  6.676E-01  1.497E+01  5.241E-02  1.223E+00
   1    8    6     5     4    9.7343E+00  1.3577E-01   9.5985E+00  0.000E+00  0.000E+00  0.000E+00  1.04691E+03  6.637E-01  1.482E+01  3.706E-02  1.221E+00
   1    9    6     6     1    1.3038E+01  2.2931E-01   1.2808E+01  0.000E+00  0.000E+00  0.000E+00  1.04355E+03  8.218E-01  1.200E+01  6.000E-02  1.274E+00
   1   10    7     6     2    1.2808E+01  2.2878E-01   1.2580E+01  0.000E+00  0.000E+00  0.000E+00  1.03899E+03  8.131E-01  1.200E+01  6.000E-02  1.271E+00
   1   11    7     6     3    1.2580E+01  2.2826E-01   1.2351E+01  0.000E+00  0.000E+00  0.000E+00  1.03444E+03  8.043E-01  1.200E+01  6.000E-02  1.268E+00
   1   12    7     6     4    1.2351E+01  2.2772E-01   1.2124E+01  0.000E+00  0.000E+00  0.000E+00  1.02989E+03  7.954E-01  1.200E+01  6.000E-02  1.265E+00
   1   13    7     6     5    1.2124E+01  2.4633E-03   1.2121E+01  0.000E+00  0.000E+00  0.000E+00  1.02670E+03  7.909E-01  1.200E+01  2.400E-02  3.421E-02
   1   14    9     7     1    1.5000E+02  1.3722E+00   1.4863E+02  0.000E+00  0.000E+00  0.000E+00  1.03987E+03  2.288E+00  5.529E+01  5.593E-01  8.178E-01
   1   13    8     7     2    1.4863E+02  1.9652E+00   1.4666E+02  0.000E+00  0.000E+00  0.000E+00  1.03478E+03  2.279E+00  5.525E+01  6.147E-01  1.066E+00
   1   13    7     7     3    1.4666E+02  1.7259E+00   1.4494E+02  0.000E+00  0.000E+00  0.000E+00  1.02969E+03  2.269E+00  5.521E+01  5.584E-01  1.030E+00
   1   13    6     8     1    1.5706E+02  1.1187E+00   1.5594E+02  0.000E+00  0.000E+00  0.000E+00  1.02474E+03  2.862E+00  4.150E+01  4.229E-01  8.818E-01
   1   13    5     8     2    1.5594E+02  3.8416E-01   1.5556E+02  0.000E+00  0.000E+00  0.000E+00  1.01848E+03  2.857E+00  4.142E+01  4.221E-01  3.034E-01
   1   13    4     8     3    1.5556E+02 -1.6815E+00   1.5724E+02  0.000E+00  0.000E+00  0.000E+00  1.01224E+03  2.861E+00  4.149E+01  4.228E+00 -1.326E-01
   1   13    3     8     4    1.5724E+02 -3.2949E+00   1.6053E+02  0.000E+00  0.000E+00  0.000E+00  1.00600E+03  2.878E+00  4.174E+01  4.253E+00 -2.582E-01
   1   13    2     8     5    1.6053E+02 -2.5116E+00   1.6304E+02  0.000E+00  0.000E+00  0.000E+00  9.99773E+02  2.898E+00  4.202E+01  4.282E+00 -1.955E-01
   1   13    1     8     6    1.6304E+02 -1.9715E+00   1.6501E+02  0.000E+00  0.000E+00  0.000E+00  9.94788E+02  2.913E+00  4.224E+01  2.582E+00 -2.545E-01
   1    8    6     9     1    0.0000E+00  0.0000E+00   0.0000E+00  0.000E+00  0.000E+00  0.000E+00  1.07875E+03  0.000E+00  4.000E+00  0.000E+00  1.000E+00
   1    8    5     9     2    0.0000E+00  0.0000E+00   0.0000E+00  0.000E+00  0.000E+00  0.000E+00  1.07825E+03  0.000E+00  4.000E+00  0.000E+00  1.000E+00





UNSATURATED ZONE PACKAGE VOLUMETRIC BUDGET FOR  TIME STEP    30 STRESS PERIOD   14
  ------------------------------------------------------------------------------



     CUMULATIVE VOLUMES      L**3       RATES FOR THIS TIME STEP      L**3/T
     ------------------                 ------------------------

           IN:                                      IN:
           ---                                      ---
        INFILTRATION =  3322075232.1418          INFILTRATION =           0.8475

          OUT:                                     OUT:
          ----                                     ----
              UZF ET =   432663663.1869                UZF ET =           0.7500
        UZF RECHARGE =  2451351471.5186          UZF RECHARGE =           6.9633

            IN - OUT =   438060097.4363              IN - OUT =          -6.8658

          STORAGE:                                 STORAGE:
          --------                                 --------
      STORAGE CHANGE =   438260677.4608        STORAGE CHANGE =          -6.8658

 PERCENT DISCREPANCY IS DIFFERENCE BETWEEN IN-OUT MINUS CHANGE IN STORAGE
 DIVIDED BY THE AVERAGE OF IN AND OUT TIMES 100

 PERCENT DISCREPANCY =          -0.00     PERCENT DISCREPANCY =           0.00






1
  VOLUMETRIC BUDGET FOR AGRICULTURAL FIELDS AT  END OF TIME STEP   30, STRESS PERIOD  14
  ------------------------------------------------------------------------------

     CUMULATIVE VOLUMES      L**3       RATES FOR THIS TIME STEP      L**3/T
     ------------------                 ------------------------

           IN:                                      IN:
           ---                                      ---
               AG WELLS  =  3104902144.0000                 AG WELLS  =           0.0000
      DIVERSION SEGMENTS =   188148784.0000        DIVERSION SEGMENTS =           0.0000
           GW IRRIGATION =           0.0000             GW IRRIGATION =           0.0000
           SW IRRIGATION =           0.0000             SW IRRIGATION =           0.0000
        SYSTEM LOSSES GW =           0.0000          SYSTEM LOSSES GW =           0.0000
        SYSTEM LOSSES SW =           0.0000          SYSTEM LOSSES SW =           0.0000

                TOTAL IN =  3293050880.0000                  TOTAL IN =           0.0000

          OUT:                                     OUT:
          ----                                     ----
               AG WELLS  =           0.0000                 AG WELLS  =           0.0000
      DIVERSION SEGMENTS =           0.0000        DIVERSION SEGMENTS =           0.0000
           GW IRRIGATION =  3104902144.0000             GW IRRIGATION =           0.0000
           SW IRRIGATION =   188152464.0000             SW IRRIGATION =           0.0000
        SYSTEM LOSSES GW =           0.0000          SYSTEM LOSSES GW =           0.0000
        SYSTEM LOSSES SW =           0.0000          SYSTEM LOSSES SW =           0.0000

               TOTAL OUT =  3293054720.0000                 TOTAL OUT =           0.0000

                IN - OUT =       -3840.0000                  IN - OUT =           0.0000

     PERCENT DISCREPANCY =          -0.00         PERCENT DISCREPANCY =           0.00



1
  VOLUMETRIC BUDGET FOR ENTIRE MODEL AT END OF TIME STEP   30, STRESS PERIOD  14
  ------------------------------------------------------------------------------

     CUMULATIVE VOLUMES      L**3       RATES FOR THIS TIME STEP      L**3/T
     ------------------                 ------------------------

           IN:                                      IN:
           ---                                      ---
             STORAGE     =  3329965824.0000               STORAGE     =           4.7194
       CONSTANT HEAD     =           0.0000         CONSTANT HEAD     =           0.0000
     HEAD DEP BOUNDS     =     9870460.0000       HEAD DEP BOUNDS     =           0.2882
      STREAM LEAKAGE     =   404212992.0000        STREAM LEAKAGE     =          11.5700
        UZF RECHARGE     =  2451349760.0000          UZF RECHARGE     =           6.9633
               GW ET     =           0.0000                 GW ET     =           0.0000
     SURFACE LEAKAGE     =           0.0000       SURFACE LEAKAGE     =           0.0000
           AG WELLS      =           0.0000             AG WELLS      =           0.0000

                TOTAL IN =  6195398656.0000                  TOTAL IN =          23.5409

          OUT:                                     OUT:
          ----                                     ----
             STORAGE     =  2735389440.0000               STORAGE     =          13.7921
       CONSTANT HEAD     =           0.0000         CONSTANT HEAD     =           0.0000
     HEAD DEP BOUNDS     =     9871990.0000       HEAD DEP BOUNDS     =           0.2869
      STREAM LEAKAGE     =   345194112.0000        STREAM LEAKAGE     =           9.4595
        UZF RECHARGE     =           0.0000          UZF RECHARGE     =           0.0000
               GW ET     =           0.0000                 GW ET     =           0.0000
     SURFACE LEAKAGE     =           0.0000       SURFACE LEAKAGE     =           0.0000
           AG WELLS      =  3104902144.0000             AG WELLS      =           0.0000

               TOTAL OUT =  6195357696.0000                 TOTAL OUT =          23.5386

                IN - OUT =       40960.0000                  IN - OUT =       2.2831E-03

     PERCENT DISCREPANCY =           0.00         PERCENT DISCREPANCY =           0.01






         TIME SUMMARY AT END OF TIME STEP   30 IN STRESS PERIOD   14
                    SECONDS     MINUTES      HOURS       DAYS        YEARS
                    -----------------------------------------------------------
   TIME STEP LENGTH  87667.      1461.1      24.352      1.0147     2.77799E-03
 STRESS PERIOD TIME 2.63000E+06  43833.      730.56      30.440     8.33397E-02
         TOTAL TIME 3.42763E+07 5.71272E+05  9521.2      396.72      1.0862    
1
1
                            STRESS PERIOD NO.   15, LENGTH =   2630000.    
                            -----------------------------------------------

                              NUMBER OF TIME STEPS =    30

                               MULTIPLIER FOR DELT =     1.000

                            INITIAL TIME STEP SIZE =   87666.66    

 REUSING NON-PARAMETER GHB CELLS FROM LAST STRESS PERIOD

      2 GHB CELLS

 REUSING STREAM SEGMENT DATA FROM LAST STRESS PERIOD



            AREAL INFILTRATION RATE
 READING ON UNIT   19 WITH FORMAT: (FREE)              

            1           2           3           4           5           6           7           8           9          10
 ........................................................................................................................
   1   1.0000E-10  2.0000E-10   0.000       0.000       0.000       0.000       0.000       0.000       0.000       0.000    
   2   2.0000E-10  1.0000E-10  2.0000E-10   0.000       0.000      8.0000E-10  8.0000E-10  5.0000E-10   0.000       0.000    
   3    0.000      5.0000E-10  1.0000E-10  1.0000E-10  8.0000E-10  8.0000E-10  5.0000E-10  5.0000E-10   0.000       0.000    
   4   8.0000E-10  5.0000E-10  1.0000E-10  1.0000E-10  1.0000E-10  1.0000E-10  1.0000E-10  1.0000E-10  2.0000E-10   0.000    
   5   8.0000E-10  5.0000E-10  1.0000E-10  1.0000E-10  1.0000E-10  1.0000E-10  1.0000E-10  1.0000E-10  1.0000E-10  1.0000E-10
   6   8.0000E-10  5.0000E-10  5.0000E-10  2.0000E-10  2.0000E-10  1.0000E-10  1.0000E-10  1.0000E-10  1.0000E-10  5.0000E-10
   7   8.0000E-10  5.0000E-10  5.0000E-10  2.0000E-10  2.0000E-10  1.0000E-10  1.0000E-10  2.0000E-10  2.0000E-10   0.000    
   8    0.000      5.0000E-10  5.0000E-10  2.0000E-10  2.0000E-10  1.0000E-10  1.0000E-10  2.0000E-10  5.0000E-10   0.000    
   9    0.000      5.0000E-10  5.0000E-10  2.0000E-10  2.0000E-10  1.0000E-10  1.0000E-10  2.0000E-10  5.0000E-10   0.000    
  10    0.000      5.0000E-10  5.0000E-10  2.0000E-10  2.0000E-10  1.0000E-10  1.0000E-10  2.0000E-10  5.0000E-10  8.0000E-10
  11    0.000      1.0000E-10  1.0000E-10  1.0000E-10  1.0000E-10  1.0000E-10  1.0000E-10  2.0000E-10  5.0000E-10   0.000    
  12   1.0000E-10  1.0000E-10  1.0000E-10  1.0000E-10  1.0000E-10  1.0000E-10  1.0000E-10  1.0000E-10  2.0000E-10   0.000    
  13   1.0000E-10  1.0000E-10  2.0000E-10  2.0000E-10  2.0000E-10  2.0000E-10  2.0000E-10  1.0000E-10  1.0000E-10   0.000    
  14    0.000      2.0000E-10  5.0000E-10  5.0000E-10  5.0000E-10  5.0000E-10  5.0000E-10  2.0000E-10  1.0000E-10   0.000    
  15    0.000       0.000      8.0000E-10  8.0000E-10  8.0000E-10  8.0000E-10   0.000       0.000       0.000       0.000    

                  ET RATE =  5.000000E-10

 USING ET EXTINCTION DEPTH FROM PREVIOUS STRESS PERIOD. CURRENT PERIOD IS:      15

 USING EXTINCTION WATER CONTENT FROM PREVIOUS STRESS PERIOD. CURRENT PERIOD IS:      15

 USING AIR ENTRY PRESSURE FROM PREVIOUS STRESS PERIOD. CURRENT PERIOD IS:      15

 USING ROOT PRESSURE HEAD FROM PREVIOUS STRESS PERIOD. CURRENT PERIOD IS:      15

 USING ROOT ACTIVITY FROM PREVIOUS STRESS PERIOD. CURRENT PERIOD IS:      15

 PROCESSING AG STRESS PERIOD DATA

 READING AG STRESS PERIOD DATA

 READING IRRIGATION SEGMENT

 READING IRRIGATION WELL

 READING SUPPLEMENTAL WELL

 END PROCESSING AG STRESS PERIOD DATA OPTIONS
 
 SOLVING FOR HEAD 
                                                   Max.-Head-Change                         Max.-Flux-Residual
  Residual-Control   Outer-Iter.   Inner-Iter.     Column Row Layer    Maximum-Head-Change  Column Row Layer    Maximum-Flux-Residual          L2-NORM 
          0                 1           2             3    7     1       0.2072826734E-01       6    8    1         0.5732400064E+00      0.2443017097E+01
          0                 2           2             3    7     1      -0.2005350181E-02       5    8    1         0.8217985048E-01      0.2864673393E+00
          0                 3           2             5    8     1       0.4101279849E-03       5    8    1         0.2196242382E-01      0.4638859058E-01
          0                 4           1             5    8     1       0.1127422769E-03       5    8    1         0.6071279527E-02      0.1217584107E-01
          0                 5           1             5    8     1       0.3101879035E-04       5    8    1         0.1667853065E-02      0.3397980958E-02

    ------------------------------------------------
       NWT REQUIRED            5 OUTER ITERATIONS 
       AND A TOTAL OF          8 INNER ITERATIONS.
    ------------------------------------------------

 NO OUTPUT CONTROL FOR STRESS PERIOD   15   TIME STEP    1
 
 SOLVING FOR HEAD 
                                                   Max.-Head-Change                         Max.-Flux-Residual
  Residual-Control   Outer-Iter.   Inner-Iter.     Column Row Layer    Maximum-Head-Change  Column Row Layer    Maximum-Flux-Residual          L2-NORM 
          0                 1           2             3    7     1       0.2049361178E-01       6    8    1         0.5698586016E+00      0.2428876263E+01
          0                 2           2             3    7     1      -0.1981971937E-02       5    8    1         0.8251174895E-01      0.2866393343E+00
          0                 3           2             5    8     1       0.4122037551E-03       5    8    1         0.2206768735E-01      0.4710210395E-01
          0                 4           1             5    8     1       0.1133638242E-03       5    8    1         0.6102682771E-02      0.1240550846E-01
          0                 5           1             5    8     1       0.3120372071E-04       5    8    1         0.1677249308E-02      0.3463676337E-02

    ------------------------------------------------
       NWT REQUIRED            5 OUTER ITERATIONS 
       AND A TOTAL OF          8 INNER ITERATIONS.
    ------------------------------------------------

 NO OUTPUT CONTROL FOR STRESS PERIOD   15   TIME STEP    2
 
 SOLVING FOR HEAD 
                                                   Max.-Head-Change                         Max.-Flux-Residual
  Residual-Control   Outer-Iter.   Inner-Iter.     Column Row Layer    Maximum-Head-Change  Column Row Layer    Maximum-Flux-Residual          L2-NORM 
          0                 1           2             3    7     1       0.2026496034E-01       6    8    1         0.5660801526E+00      0.2415005684E+01
          0                 2           2             3    7     1      -0.1959200250E-02       5    8    1         0.8282858819E-01      0.2868143246E+00
          0                 3           2             5    8     1       0.4141921719E-03       5    8    1         0.2216856306E-01      0.4779298285E-01
          0                 4           1             5    8     1       0.1139593575E-03       5    8    1         0.6132764030E-02      0.1262697682E-01
          0                 5           1             5    8     1       0.3138094401E-04       5    8    1         0.1686252812E-02      0.3526983204E-02

    ------------------------------------------------
       NWT REQUIRED            5 OUTER ITERATIONS 
       AND A TOTAL OF          8 INNER ITERATIONS.
    ------------------------------------------------

 NO OUTPUT CONTROL FOR STRESS PERIOD   15   TIME STEP    3
 
 SOLVING FOR HEAD 
                                                   Max.-Head-Change                         Max.-Flux-Residual
  Residual-Control   Outer-Iter.   Inner-Iter.     Column Row Layer    Maximum-Head-Change  Column Row Layer    Maximum-Flux-Residual          L2-NORM 
          0                 1           2             3    7     1       0.2004185351E-01       6    8    1         0.5613823858E+00      0.2400958525E+01
          0                 2           2             3    7     1      -0.1936990938E-02       5    8    1         0.8312769865E-01      0.2869497541E+00
          0                 3           2             5    8     1       0.4160849026E-03       5    8    1         0.2226463846E-01      0.4845895171E-01
          0                 4           1             5    8     1       0.1145267329E-03       5    8    1         0.6161399887E-02      0.1284000774E-01
          0                 5           1             5    8     1       0.3154990916E-04       5    8    1         0.1694832476E-02      0.3587844631E-02

    ------------------------------------------------
       NWT REQUIRED            5 OUTER ITERATIONS 
       AND A TOTAL OF          8 INNER ITERATIONS.
    ------------------------------------------------

 NO OUTPUT CONTROL FOR STRESS PERIOD   15   TIME STEP    4
 
 SOLVING FOR HEAD 
                                                   Max.-Head-Change                         Max.-Flux-Residual
  Residual-Control   Outer-Iter.   Inner-Iter.     Column Row Layer    Maximum-Head-Change  Column Row Layer    Maximum-Flux-Residual          L2-NORM 
          0                 1           2             3    7     1       0.1982433120E-01       6    8    1         0.5568264528E+00      0.2387311012E+01
          0                 2           2             3    7     1      -0.1915346045E-02       5    8    1         0.8340917850E-01      0.2870922492E+00
          0                 3           2             5    8     1       0.4178740236E-03       5    8    1         0.2235537233E-01      0.4910040202E-01
          0                 4           2             5    8     1       0.1150637778E-03       5    8    1         0.6188477814E-02      0.1304446520E-01
          0                 5           1             5    8     1       0.3171002187E-04       5    8    1         0.1702956119E-02      0.3646227363E-02

    ------------------------------------------------
       NWT REQUIRED            5 OUTER ITERATIONS 
       AND A TOTAL OF          9 INNER ITERATIONS.
    ------------------------------------------------

 NO OUTPUT CONTROL FOR STRESS PERIOD   15   TIME STEP    5
 
 SOLVING FOR HEAD 
                                                   Max.-Head-Change                         Max.-Flux-Residual
  Residual-Control   Outer-Iter.   Inner-Iter.     Column Row Layer    Maximum-Head-Change  Column Row Layer    Maximum-Flux-Residual          L2-NORM 
          0                 1           2             3    7     1       0.1961195046E-01       6    8    1         0.5523994501E+00      0.2374043997E+01
          0                 2           2             3    7     1      -0.1894222127E-02       5    8    1         0.8367571294E-01      0.2872396961E+00
          0                 3           2             5    8     1       0.4195737248E-03       5    8    1         0.2244152713E-01      0.4971814349E-01
          0                 4           2             5    8     1       0.1155744295E-03       5    8    1         0.6214208077E-02      0.1324071966E-01
          0                 5           1             5    8     1       0.3186237563E-04       5    8    1         0.1710682149E-02      0.3702241056E-02

    ------------------------------------------------
       NWT REQUIRED            5 OUTER ITERATIONS 
       AND A TOTAL OF          9 INNER ITERATIONS.
    ------------------------------------------------

 NO OUTPUT CONTROL FOR STRESS PERIOD   15   TIME STEP    6
 
 SOLVING FOR HEAD 
                                                   Max.-Head-Change                         Max.-Flux-Residual
  Residual-Control   Outer-Iter.   Inner-Iter.     Column Row Layer    Maximum-Head-Change  Column Row Layer    Maximum-Flux-Residual          L2-NORM 
          0                 1           2             3    7     1       0.1940500807E-01       6    8    1         0.5481036263E+00      0.2361142556E+01
          0                 2           2             3    7     1      -0.1873647224E-02       5    8    1         0.8392576965E-01      0.2873882930E+00
          0                 3           2             5    8     1       0.4211770104E-03       5    8    1         0.2252270344E-01      0.5031193245E-01
          0                 4           2             5    8     1       0.1160569110E-03       5    8    1         0.6238489377E-02      0.1342882198E-01
          0                 5           1             5    8     1       0.3200652038E-04       5    8    1         0.1717984822E-02      0.3755908235E-02

    ------------------------------------------------
       NWT REQUIRED            5 OUTER ITERATIONS 
       AND A TOTAL OF          9 INNER ITERATIONS.
    ------------------------------------------------

 NO OUTPUT CONTROL FOR STRESS PERIOD   15   TIME STEP    7
 
 SOLVING FOR HEAD 
                                                   Max.-Head-Change                         Max.-Flux-Residual
  Residual-Control   Outer-Iter.   Inner-Iter.     Column Row Layer    Maximum-Head-Change  Column Row Layer    Maximum-Flux-Residual          L2-NORM 
          0                 1           2             3    7     1       0.1920282528E-01       6    8    1         0.5439338149E+00      0.2348580294E+01
          0                 2           2             3    7     1      -0.1853554984E-02       5    8    1         0.8415990112E-01      0.2875337054E+00
          0                 3           2             5    8     1       0.4226869405E-03       5    8    1         0.2259906802E-01      0.5088166784E-01
          0                 4           2             5    8     1       0.1165120681E-03       5    8    1         0.6261366922E-02      0.1360885846E-01
          0                 5           1             4    8     1       0.3219515088E-04       5    8    1         0.1724876705E-02      0.3807251624E-02

    ------------------------------------------------
       NWT REQUIRED            5 OUTER ITERATIONS 
       AND A TOTAL OF          9 INNER ITERATIONS.
    ------------------------------------------------

 NO OUTPUT CONTROL FOR STRESS PERIOD   15   TIME STEP    8
 
 SOLVING FOR HEAD 
                                                   Max.-Head-Change                         Max.-Flux-Residual
  Residual-Control   Outer-Iter.   Inner-Iter.     Column Row Layer    Maximum-Head-Change  Column Row Layer    Maximum-Flux-Residual          L2-NORM 
          0                 1           2             3    7     1       0.1900547302E-01       6    8    1         0.5398848577E+00      0.2336347909E+01
          0                 2           2             3    7     1      -0.1833950548E-02       5    8    1         0.8438087577E-01      0.2876771639E+00
          0                 3           2             5    8     1       0.4241181676E-03       5    8    1         0.2267139728E-01      0.5142923500E-01
          0                 4           2             5    8     1       0.1169440196E-03       5    8    1         0.6283058732E-02      0.1378148031E-01
          0                 5           1             4    8     1       0.3254353067E-04       5    8    1         0.1731419086E-02      0.3856464296E-02

    ------------------------------------------------
       NWT REQUIRED            5 OUTER ITERATIONS 
       AND A TOTAL OF          9 INNER ITERATIONS.
    ------------------------------------------------

 NO OUTPUT CONTROL FOR STRESS PERIOD   15   TIME STEP    9
 
 SOLVING FOR HEAD 
                                                   Max.-Head-Change                         Max.-Flux-Residual
  Residual-Control   Outer-Iter.   Inner-Iter.     Column Row Layer    Maximum-Head-Change  Column Row Layer    Maximum-Flux-Residual          L2-NORM 
          0                 1           2             3    7     1       0.1881302158E-01       6    8    1         0.5359520761E+00      0.2324437354E+01
          0                 2           2             3    7     1      -0.1814840985E-02       5    8    1         0.8458911158E-01      0.2878154913E+00
          0                 3           2             5    8     1       0.4254729029E-03       5    8    1         0.2273981108E-01      0.5195425048E-01
          0                 4           2             5    8     1       0.1173533717E-03       5    8    1         0.6303597455E-02      0.1394665332E-01
          0                 5           1             4    8     1       0.3287581508E-04       4    8    1         0.1740782427E-02      0.3903538648E-02

    ------------------------------------------------
       NWT REQUIRED            5 OUTER ITERATIONS 
       AND A TOTAL OF          9 INNER ITERATIONS.
    ------------------------------------------------

 NO OUTPUT CONTROL FOR STRESS PERIOD   15   TIME STEP   10
 
 SOLVING FOR HEAD 
                                                   Max.-Head-Change                         Max.-Flux-Residual
  Residual-Control   Outer-Iter.   Inner-Iter.     Column Row Layer    Maximum-Head-Change  Column Row Layer    Maximum-Flux-Residual          L2-NORM 
          0                 1           2             3    7     1       0.1862481181E-01       6    8    1         0.5321235106E+00      0.2312813982E+01
          0                 2           2             3    7     1      -0.1796161463E-02       5    8    1         0.8478079989E-01      0.2879432902E+00
          0                 3           2             5    8     1       0.4267329776E-03       5    8    1         0.2280330495E-01      0.5245622146E-01
          0                 4           2             4    8     1       0.1180993145E-03       5    8    1         0.6322717037E-02      0.1410432415E-01
          0                 5           1             4    8     1       0.3319242339E-04       4    8    1         0.1757433611E-02      0.3948464084E-02

    ------------------------------------------------
       NWT REQUIRED            5 OUTER ITERATIONS 
       AND A TOTAL OF          9 INNER ITERATIONS.
    ------------------------------------------------

 NO OUTPUT CONTROL FOR STRESS PERIOD   15   TIME STEP   11
 
 SOLVING FOR HEAD 
                                                   Max.-Head-Change                         Max.-Flux-Residual
  Residual-Control   Outer-Iter.   Inner-Iter.     Column Row Layer    Maximum-Head-Change  Column Row Layer    Maximum-Flux-Residual          L2-NORM 
          0                 1           2             3    7     1       0.1844117543E-01       6    8    1         0.5284096740E+00      0.2301480672E+01
          0                 2           2             3    7     1      -0.1777943045E-02       5    8    1         0.8496082333E-01      0.2880624170E+00
          0                 3           2             5    8     1       0.4279224561E-03       5    8    1         0.2286319564E-01      0.5293669961E-01
          0                 4           2             4    8     1       0.1191628570E-03       5    8    1         0.6340771385E-02      0.1425500967E-01
          0                 5           1             4    8     1       0.3349412059E-04       4    8    1         0.1773299771E-02      0.3991389209E-02

    ------------------------------------------------
       NWT REQUIRED            5 OUTER ITERATIONS 
       AND A TOTAL OF          9 INNER ITERATIONS.
    ------------------------------------------------

 NO OUTPUT CONTROL FOR STRESS PERIOD   15   TIME STEP   12
 
 SOLVING FOR HEAD 
                                                   Max.-Head-Change                         Max.-Flux-Residual
  Residual-Control   Outer-Iter.   Inner-Iter.     Column Row Layer    Maximum-Head-Change  Column Row Layer    Maximum-Flux-Residual          L2-NORM 
          0                 1           2             3    7     1       0.1826170904E-01       6    8    1         0.5247912651E+00      0.2290416408E+01
          0                 2           2             3    7     1      -0.1760146330E-02       5    8    1         0.8512736722E-01      0.2881701185E+00
          0                 3           2             5    8     1       0.4290332079E-03       5    8    1         0.2291902393E-01      0.5339582193E-01
          0                 4           2             4    8     1       0.1201753142E-03       4    8    1         0.6365508907E-02      0.1439881664E-01
          0                 5           1             4    8     1       0.3378132273E-04       4    8    1         0.1788403788E-02      0.4032345589E-02

    ------------------------------------------------
       NWT REQUIRED            5 OUTER ITERATIONS 
       AND A TOTAL OF          9 INNER ITERATIONS.
    ------------------------------------------------

 NO OUTPUT CONTROL FOR STRESS PERIOD   15   TIME STEP   13
 
 SOLVING FOR HEAD 
                                                   Max.-Head-Change                         Max.-Flux-Residual
  Residual-Control   Outer-Iter.   Inner-Iter.     Column Row Layer    Maximum-Head-Change  Column Row Layer    Maximum-Flux-Residual          L2-NORM 
          0                 1           2             3    7     1       0.1808626537E-01       6    8    1         0.5212792843E+00      0.2279616754E+01
          0                 2           2             3    7     1      -0.1742756325E-02       5    8    1         0.8528311256E-01      0.2882659848E+00
          0                 3           2             4    8     1       0.4309181625E-03       5    8    1         0.2297150770E-01      0.5383421377E-01
          0                 4           2             4    8     1       0.1211387632E-03       4    8    1         0.6416148652E-02      0.1453598116E-01
          0                 5           1             4    8     1       0.3405463594E-04       4    8    1         0.1802776892E-02      0.4071402824E-02

    ------------------------------------------------
       NWT REQUIRED            5 OUTER ITERATIONS 
       AND A TOTAL OF          9 INNER ITERATIONS.
    ------------------------------------------------

 NO OUTPUT CONTROL FOR STRESS PERIOD   15   TIME STEP   14
 
 SOLVING FOR HEAD 
                                                   Max.-Head-Change                         Max.-Flux-Residual
  Residual-Control   Outer-Iter.   Inner-Iter.     Column Row Layer    Maximum-Head-Change  Column Row Layer    Maximum-Flux-Residual          L2-NORM 
          0                 1           2             3    7     1       0.1791494205E-01       6    8    1         0.5178547947E+00      0.2269057332E+01
          0                 2           2             3    7     1      -0.1725781906E-02       5    8    1         0.8542406067E-01      0.2883470666E+00
          0                 3           2             4    8     1       0.4341459109E-03       5    8    1         0.2301961937E-01      0.5425197677E-01
          0                 4           2             4    8     1       0.1220545252E-03       4    8    1         0.6464283039E-02      0.1466659803E-01
          0                 5           1             4    8     1       0.3431440953E-04       4    8    1         0.1816438405E-02      0.4108589097E-02

    ------------------------------------------------
       NWT REQUIRED            5 OUTER ITERATIONS 
       AND A TOTAL OF          9 INNER ITERATIONS.
    ------------------------------------------------

 NO OUTPUT CONTROL FOR STRESS PERIOD   15   TIME STEP   15
 
 SOLVING FOR HEAD 
                                                   Max.-Head-Change                         Max.-Flux-Residual
  Residual-Control   Outer-Iter.   Inner-Iter.     Column Row Layer    Maximum-Head-Change  Column Row Layer    Maximum-Flux-Residual          L2-NORM 
          0                 1           2             3    7     1       0.1774735422E-01       6    8    1         0.5145288406E+00      0.2258745581E+01
          0                 2           2             3    7     1      -0.1709185003E-02       5    8    1         0.8555520647E-01      0.2884163110E+00
          0                 3           2             4    8     1       0.4372129524E-03       4    8    1         0.2307210298E-01      0.5465074740E-01
          0                 4           2             4    8     1       0.1229247679E-03       4    8    1         0.6510021418E-02      0.1479116900E-01
          0                 5           1             4    8     1       0.3456129114E-04       4    8    1         0.1829421120E-02      0.4144051357E-02

    ------------------------------------------------
       NWT REQUIRED            5 OUTER ITERATIONS 
       AND A TOTAL OF          9 INNER ITERATIONS.
    ------------------------------------------------

 NO OUTPUT CONTROL FOR STRESS PERIOD   15   TIME STEP   16
 
 SOLVING FOR HEAD 
                                                   Max.-Head-Change                         Max.-Flux-Residual
  Residual-Control   Outer-Iter.   Inner-Iter.     Column Row Layer    Maximum-Head-Change  Column Row Layer    Maximum-Flux-Residual          L2-NORM 
          0                 1           2             3    7     1       0.1758361393E-01       6    8    1         0.5112830852E+00      0.2248652909E+01
          0                 2           2             3    7     1      -0.1692975494E-02       5    8    1         0.8567667629E-01      0.2884701365E+00
          0                 3           2             4    8     1       0.4401256495E-03       4    8    1         0.2322568560E-01      0.5503038106E-01
          0                 4           2             4    8     1       0.1237513233E-03       4    8    1         0.6553459085E-02      0.1490971750E-01
          0                 5           1             4    8     1       0.3479580738E-04       4    8    1         0.1841752541E-02      0.4177794577E-02

    ------------------------------------------------
       NWT REQUIRED            5 OUTER ITERATIONS 
       AND A TOTAL OF          9 INNER ITERATIONS.
    ------------------------------------------------

 NO OUTPUT CONTROL FOR STRESS PERIOD   15   TIME STEP   17
 
 SOLVING FOR HEAD 
                                                   Max.-Head-Change                         Max.-Flux-Residual
  Residual-Control   Outer-Iter.   Inner-Iter.     Column Row Layer    Maximum-Head-Change  Column Row Layer    Maximum-Flux-Residual          L2-NORM 
          0                 1           2             3    7     1       0.1742334384E-01       6    8    1         0.5081290962E+00      0.2238778976E+01
          0                 2           2             3    7     1      -0.1677117553E-02       5    8    1         0.8578456531E-01      0.2885073504E+00
          0                 3           2             4    8     1       0.4428785585E-03       4    8    1         0.2337085979E-01      0.5539082110E-01
          0                 4           2             4    8     1       0.1245325286E-03       4    8    1         0.6594512965E-02      0.1502225219E-01
          0                 5           1             4    8     1       0.3501745729E-04       4    8    1         0.1853407349E-02      0.4209823002E-02

    ------------------------------------------------
       NWT REQUIRED            5 OUTER ITERATIONS 
       AND A TOTAL OF          9 INNER ITERATIONS.
    ------------------------------------------------

 NO OUTPUT CONTROL FOR STRESS PERIOD   15   TIME STEP   18
 
 SOLVING FOR HEAD 
                                                   Max.-Head-Change                         Max.-Flux-Residual
  Residual-Control   Outer-Iter.   Inner-Iter.     Column Row Layer    Maximum-Head-Change  Column Row Layer    Maximum-Flux-Residual          L2-NORM 
          0                 1           2             3    7     1       0.1726666487E-01       6    8    1         0.5050556764E+00      0.2229119914E+01
          0                 2           2             3    7     1      -0.1661620918E-02       5    8    1         0.8588373660E-01      0.2885307015E+00
          0                 3           2             4    8     1       0.4454972871E-03       4    8    1         0.2350896669E-01      0.5573390124E-01
          0                 4           2             4    8     1       0.1252756867E-03       4    8    1         0.6633565753E-02      0.1512934622E-01
          0                 5           1             4    8     1       0.3522831966E-04       4    8    1         0.1864494657E-02      0.4240301090E-02

    ------------------------------------------------
       NWT REQUIRED            5 OUTER ITERATIONS 
       AND A TOTAL OF          9 INNER ITERATIONS.
    ------------------------------------------------

 NO OUTPUT CONTROL FOR STRESS PERIOD   15   TIME STEP   19
 
 SOLVING FOR HEAD 
                                                   Max.-Head-Change                         Max.-Flux-Residual
  Residual-Control   Outer-Iter.   Inner-Iter.     Column Row Layer    Maximum-Head-Change  Column Row Layer    Maximum-Flux-Residual          L2-NORM 
          0                 1           2             3    7     1       0.1711345406E-01       6    8    1         0.5020597319E+00      0.2219652887E+01
          0                 2           2             3    7     1      -0.1646474105E-02       5    8    1         0.8597019354E-01      0.2885362446E+00
          0                 3           2             4    8     1       0.4479672763E-03       4    8    1         0.2363923747E-01      0.5605900178E-01
          0                 4           2             4    8     1       0.1259766866E-03       4    8    1         0.6670400449E-02      0.1523084921E-01
          0                 5           1             4    8     1       0.3542723660E-04       4    8    1         0.1874953229E-02      0.4269186992E-02

    ------------------------------------------------
       NWT REQUIRED            5 OUTER ITERATIONS 
       AND A TOTAL OF          9 INNER ITERATIONS.
    ------------------------------------------------

 NO OUTPUT CONTROL FOR STRESS PERIOD   15   TIME STEP   20
 
 SOLVING FOR HEAD 
                                                   Max.-Head-Change                         Max.-Flux-Residual
  Residual-Control   Outer-Iter.   Inner-Iter.     Column Row Layer    Maximum-Head-Change  Column Row Layer    Maximum-Flux-Residual          L2-NORM 
          0                 1           2             3    7     1       0.1696335010E-01       6    8    1         0.4991380423E+00      0.2210383482E+01
          0                 2           2             3    7     1      -0.1631640972E-02       5    8    1         0.8604863017E-01      0.2885281675E+00
          0                 3           2             4    8     1       0.4503042366E-03       4    8    1         0.2376249227E-01      0.5636811164E-01
          0                 4           2             4    8     1       0.1266400339E-03       4    8    1         0.6705252172E-02      0.1532725720E-01
          0                 5           1             4    8     1       0.3561549568E-04       4    8    1         0.1884850422E-02      0.4296620617E-02

    ------------------------------------------------
       NWT REQUIRED            5 OUTER ITERATIONS 
       AND A TOTAL OF          9 INNER ITERATIONS.
    ------------------------------------------------

 NO OUTPUT CONTROL FOR STRESS PERIOD   15   TIME STEP   21
 
 SOLVING FOR HEAD 
                                                   Max.-Head-Change                         Max.-Flux-Residual
  Residual-Control   Outer-Iter.   Inner-Iter.     Column Row Layer    Maximum-Head-Change  Column Row Layer    Maximum-Flux-Residual          L2-NORM 
          0                 1           2             3    7     1       0.1681648745E-01       6    8    1         0.4962878646E+00      0.2201292596E+01
          0                 2           2             3    7     1      -0.1617134622E-02       4    8    1         0.8614880247E-01      0.2884998804E+00
          0                 3           2             4    8     1       0.4525033467E-03       4    8    1         0.2387847741E-01      0.5665943779E-01
          0                 4           2             4    8     1       0.1272643642E-03       4    8    1         0.6738048973E-02      0.1541841039E-01
          0                 5           1             4    8     1       0.3579271286E-04       4    8    1         0.1894165922E-02      0.4322560332E-02

    ------------------------------------------------
       NWT REQUIRED            5 OUTER ITERATIONS 
       AND A TOTAL OF          9 INNER ITERATIONS.
    ------------------------------------------------

 NO OUTPUT CONTROL FOR STRESS PERIOD   15   TIME STEP   22
 
 SOLVING FOR HEAD 
                                                   Max.-Head-Change                         Max.-Flux-Residual
  Residual-Control   Outer-Iter.   Inner-Iter.     Column Row Layer    Maximum-Head-Change  Column Row Layer    Maximum-Flux-Residual          L2-NORM 
          0                 1           2             3    7     1       0.1667275417E-01       6    8    1         0.4935064372E+00      0.2192381995E+01
          0                 2           2             4    8     1       0.1616271112E-02       4    8    1         0.8652879014E-01      0.2884577225E+00
          0                 3           2             4    8     1       0.4545877866E-03       4    8    1         0.2398843431E-01      0.5693592818E-01
          0                 4           2             4    8     1       0.1278561021E-03       4    8    1         0.6769134478E-02      0.1550485788E-01
          0                 5           1             4    8     1       0.3596066980E-04       4    8    1         0.1902994983E-02      0.4347170954E-02

    ------------------------------------------------
       NWT REQUIRED            5 OUTER ITERATIONS 
       AND A TOTAL OF          9 INNER ITERATIONS.
    ------------------------------------------------

 NO OUTPUT CONTROL FOR STRESS PERIOD   15   TIME STEP   23
 
 SOLVING FOR HEAD 
                                                   Max.-Head-Change                         Max.-Flux-Residual
  Residual-Control   Outer-Iter.   Inner-Iter.     Column Row Layer    Maximum-Head-Change  Column Row Layer    Maximum-Flux-Residual          L2-NORM 
          0                 1           2             3    7     1       0.1653204487E-01       4    9    1         0.4911044907E+00      0.2183639648E+01
          0                 2           2             4    8     1       0.1623126888E-02       4    8    1         0.8688321627E-01      0.2883985019E+00
          0                 3           2             4    8     1       0.4565353868E-03       4    8    1         0.2409114998E-01      0.5719685516E-01
          0                 4           2             4    8     1       0.1284092798E-03       4    8    1         0.6798182606E-02      0.1558651305E-01
          0                 5           1             4    8     1       0.3611775855E-04       4    8    1         0.1911249812E-02      0.4370398034E-02

    ------------------------------------------------
       NWT REQUIRED            5 OUTER ITERATIONS 
       AND A TOTAL OF          9 INNER ITERATIONS.
    ------------------------------------------------

 NO OUTPUT CONTROL FOR STRESS PERIOD   15   TIME STEP   24
 
 SOLVING FOR HEAD 
                                                   Max.-Head-Change                         Max.-Flux-Residual
  Residual-Control   Outer-Iter.   Inner-Iter.     Column Row Layer    Maximum-Head-Change  Column Row Layer    Maximum-Flux-Residual          L2-NORM 
          0                 1           2             3    7     1       0.1639401329E-01       4    9    1         0.4888002161E+00      0.2175054834E+01
          0                 2           2             4    8     1       0.1629610711E-02       4    8    1         0.8721829164E-01      0.2883218040E+00
          0                 3           2             4    8     1       0.4583767771E-03       4    8    1         0.2418829904E-01      0.5744267867E-01
          0                 4           2             4    8     1       0.1289321529E-03       4    8    1         0.6825644020E-02      0.1566353919E-01
          0                 5           1             4    8     1       0.3626620708E-04       4    8    1         0.1919051913E-02      0.4392319610E-02

    ------------------------------------------------
       NWT REQUIRED            5 OUTER ITERATIONS 
       AND A TOTAL OF          9 INNER ITERATIONS.
    ------------------------------------------------

 NO OUTPUT CONTROL FOR STRESS PERIOD   15   TIME STEP   25
 
 SOLVING FOR HEAD 
                                                   Max.-Head-Change                         Max.-Flux-Residual
  Residual-Control   Outer-Iter.   Inner-Iter.     Column Row Layer    Maximum-Head-Change  Column Row Layer    Maximum-Flux-Residual          L2-NORM 
          0                 1           2             3    7     1       0.1625905363E-01       4    9    1         0.4865513713E+00      0.2166634545E+01
          0                 2           2             4    8     1       0.1635639088E-02       4    8    1         0.8752941557E-01      0.2882296735E+00
          0                 3           2             4    8     1       0.4600897990E-03       4    8    1         0.2427865713E-01      0.5767431705E-01
          0                 4           2             4    8     1       0.1294188441E-03       4    8    1         0.6851194011E-02      0.1573621426E-01
          0                 5           1             4    8     1       0.3640445596E-04       4    8    1         0.1926315147E-02      0.4413004049E-02

    ------------------------------------------------
       NWT REQUIRED            5 OUTER ITERATIONS 
       AND A TOTAL OF          9 INNER ITERATIONS.
    ------------------------------------------------

 NO OUTPUT CONTROL FOR STRESS PERIOD   15   TIME STEP   26
 
 SOLVING FOR HEAD 
                                                   Max.-Head-Change                         Max.-Flux-Residual
  Residual-Control   Outer-Iter.   Inner-Iter.     Column Row Layer    Maximum-Head-Change  Column Row Layer    Maximum-Flux-Residual          L2-NORM 
          0                 1           2             3    7     1       0.1612657919E-01       4    9    1         0.4843487272E+00      0.2158364976E+01
          0                 2           2             4    8     1       0.1641329473E-02       4    8    1         0.8782287371E-01      0.2881226104E+00
          0                 3           2             4    8     1       0.4617068673E-03       4    8    1         0.2436396507E-01      0.5789267048E-01
          0                 4           2             4    8     1       0.1298782962E-03       4    8    1         0.6875312548E-02      0.1580482056E-01
          0                 5           1             4    8     1       0.3653497428E-04       4    8    1         0.1933171990E-02      0.4432532163E-02

    ------------------------------------------------
       NWT REQUIRED            5 OUTER ITERATIONS 
       AND A TOTAL OF          9 INNER ITERATIONS.
    ------------------------------------------------

 NO OUTPUT CONTROL FOR STRESS PERIOD   15   TIME STEP   27
 
 SOLVING FOR HEAD 
                                                   Max.-Head-Change                         Max.-Flux-Residual
  Residual-Control   Outer-Iter.   Inner-Iter.     Column Row Layer    Maximum-Head-Change  Column Row Layer    Maximum-Flux-Residual          L2-NORM 
          0                 1           2             3    7     1       0.1599698970E-01       4    9    1         0.4821903430E+00      0.2150236881E+01
          0                 2           2             4    8     1       0.1646624372E-02       4    8    1         0.8809563231E-01      0.2879971627E+00
          0                 3           2             4    8     1       0.4632117407E-03       4    8    1         0.2444336606E-01      0.5809670526E-01
          0                 4           2             4    8     1       0.1303059302E-03       4    8    1         0.6897757695E-02      0.1586904762E-01
          0                 5           1             4    8     1       0.3665647110E-04       4    8    1         0.1939554222E-02      0.4450817899E-02

    ------------------------------------------------
       NWT REQUIRED            5 OUTER ITERATIONS 
       AND A TOTAL OF          9 INNER ITERATIONS.
    ------------------------------------------------

 NO OUTPUT CONTROL FOR STRESS PERIOD   15   TIME STEP   28
 
 SOLVING FOR HEAD 
                                                   Max.-Head-Change                         Max.-Flux-Residual
  Residual-Control   Outer-Iter.   Inner-Iter.     Column Row Layer    Maximum-Head-Change  Column Row Layer    Maximum-Flux-Residual          L2-NORM 
          0                 1           2             3    7     1       0.1586994832E-01       6    8    1         0.4951105282E+00      0.2171861592E+01
          0                 2           2             4    8     1       0.1651591293E-02       4    8    1         0.8835010951E-01      0.2901126743E+00
          0                 3           2             4    8     1       0.4646314884E-03       4    8    1         0.2451798078E-01      0.5836199993E-01
          0                 4           2             4    8     1       0.1307115139E-03       4    8    1         0.6918963461E-02      0.1593684709E-01
          0                 5           1             4    8     1       0.3677226963E-04       4    8    1         0.1945615523E-02      0.4469962698E-02

    ------------------------------------------------
       NWT REQUIRED            5 OUTER ITERATIONS 
       AND A TOTAL OF          9 INNER ITERATIONS.
    ------------------------------------------------

 NO OUTPUT CONTROL FOR STRESS PERIOD   15   TIME STEP   29
 
 SOLVING FOR HEAD 
                                                   Max.-Head-Change                         Max.-Flux-Residual
  Residual-Control   Outer-Iter.   Inner-Iter.     Column Row Layer    Maximum-Head-Change  Column Row Layer    Maximum-Flux-Residual          L2-NORM 
          0                 1           2             3    7     1       0.1574537687E-01       4   13    1         0.6669955132E+00      0.2492999196E+01
          0                 2           2             4    8     1       0.1656340921E-02       4    8    1         0.8859076615E-01      0.3144203439E+00
          0                 3           2             4    8     1       0.4660068971E-03       4    8    1         0.2458959621E-01      0.5919056365E-01
          0                 4           2             4    8     1       0.1311091023E-03       4    8    1         0.6939574111E-02      0.1602069492E-01
          0                 5           1             4    8     1       0.3688701370E-04       4    8    1         0.1951575047E-02      0.4492712359E-02

    ------------------------------------------------
       NWT REQUIRED            5 OUTER ITERATIONS 
       AND A TOTAL OF          9 INNER ITERATIONS.
    ------------------------------------------------

 NO OUTPUT CONTROL FOR STRESS PERIOD   15   TIME STEP   30



 STREAM LISTING     PERIOD     15   STEP       30

 LAYER ROW COL. STREAM  RCH.  FLOW INTO     FLOW TO   FLOW OUT OF   OVRLND.     DIRECT     STREAM       STREAM     STREAM     STREAM   STREAMBED  STREAMBED
                SEG.NO.  NO.  STRM. RCH.    AQUIFER    STRM. RCH.    RUNOFF     PRECIP       ET          HEAD       DEPTH      WIDTH   CONDCTNC.   GRADIENT

   1    1    1     1     1    3.6751E+01  2.9262E-01   3.6458E+01  0.000E+00  0.000E+00  0.000E+00  1.09435E+03  1.306E+00  1.510E+01  6.795E-02  1.435E+00
   1    2    2     1     2    3.6458E+01  4.5310E-01   3.6005E+01  0.000E+00  0.000E+00  0.000E+00  1.08936E+03  1.303E+00  1.504E+01  1.053E-01  1.434E+00
   1    3    3     1     3    3.6005E+01  3.8635E-01   3.5618E+01  0.000E+00  0.000E+00  0.000E+00  1.08372E+03  1.300E+00  1.497E+01  8.985E-02  1.433E+00
   1    3    4     1     4    3.5618E+01  3.5572E-01   3.5263E+01  0.000E+00  0.000E+00  0.000E+00  1.07870E+03  1.297E+00  1.492E+01  8.278E-02  1.432E+00
   1    4    5     2     1    3.3263E+01  3.4544E-01   3.2917E+01  0.000E+00  0.000E+00  0.000E+00  1.07336E+03  1.429E+00  1.200E+01  7.800E-02  1.476E+00
   1    5    6     2     2    3.2917E+01  2.6525E-01   3.2652E+01  0.000E+00  0.000E+00  0.000E+00  1.06793E+03  1.421E+00  1.200E+01  6.000E-02  1.474E+00
   1    6    6     2     3    3.2652E+01  2.6484E-01   3.2387E+01  0.000E+00  0.000E+00  0.000E+00  1.06321E+03  1.414E+00  1.200E+01  6.000E-02  1.471E+00
   1    7    6     2     4    3.2387E+01  2.6442E-01   3.2123E+01  0.000E+00  0.000E+00  0.000E+00  1.05848E+03  1.407E+00  1.200E+01  6.000E-02  1.469E+00
   1    8    6     2     5    3.2123E+01  2.6401E-01   3.1859E+01  0.000E+00  0.000E+00  0.000E+00  1.05376E+03  1.400E+00  1.200E+01  6.000E-02  1.467E+00
   1    3    5     3     1    2.0000E+00  2.8252E-01   1.7175E+00  0.000E+00  0.000E+00  0.000E+00  1.07555E+03  1.909E+00  9.636E+00  7.227E-02  1.955E+00
   1    3    6     3     2    1.7175E+00  2.4905E-01   1.4684E+00  0.000E+00  0.000E+00  0.000E+00  1.07264E+03  1.727E+00  8.909E+00  6.682E-02  1.864E+00
   1    3    7     3     3    1.4684E+00  1.9718E-01   1.2712E+00  0.000E+00  0.000E+00  0.000E+00  1.06987E+03  1.555E+00  8.218E+00  5.547E-02  1.777E+00
   1    4    8     3     4    1.2712E+00  2.2567E-01   1.0456E+00  0.000E+00  0.000E+00  0.000E+00  1.06682E+03  1.364E+00  7.455E+00  6.709E-02  1.682E+00
   1    5    8     3     5    1.0456E+00  1.5790E-01   8.8768E-01  0.000E+00  0.000E+00  0.000E+00  1.06362E+03  1.164E+00  6.655E+00  4.991E-02  1.582E+00
   1    6    8     3     6    8.8768E-01  5.5980E-02   8.3170E-01  0.000E+00  0.000E+00  0.000E+00  1.06158E+03  1.036E+00  6.145E+00  1.844E-02  1.518E+00
   1    5   10     4     1    1.0000E+01  9.0919E-02   9.9091E+00  0.000E+00  0.000E+00  0.000E+00  1.07836E+03  6.368E-01  1.000E+01  2.500E-02  1.212E+00
   1    5    9     4     2    9.9091E+00  1.8158E-01   9.7275E+00  0.000E+00  0.000E+00  0.000E+00  1.07154E+03  6.315E-01  1.000E+01  5.000E-02  1.211E+00
   1    6    8     4     3    9.7275E+00  1.2689E-01   9.6006E+00  0.000E+00  0.000E+00  0.000E+00  1.06381E+03  6.256E-01  1.000E+01  3.500E-02  1.209E+00
   1    6    8     5     1    1.0432E+01  2.2686E-01   1.0205E+01  0.000E+00  0.000E+00  0.000E+00  1.05868E+03  6.790E-01  1.542E+01  6.166E-02  1.226E+00
   1    7    7     5     2    1.0205E+01  2.7894E-01   9.9265E+00  0.000E+00  0.000E+00  0.000E+00  1.05417E+03  6.732E-01  1.519E+01  7.594E-02  1.224E+00
   1    8    7     5     3    9.9265E+00  1.9221E-01   9.7343E+00  0.000E+00  0.000E+00  0.000E+00  1.04992E+03  6.676E-01  1.497E+01  5.241E-02  1.223E+00
   1    8    6     5     4    9.7343E+00  1.3577E-01   9.5985E+00  0.000E+00  0.000E+00  0.000E+00  1.04691E+03  6.637E-01  1.482E+01  3.706E-02  1.221E+00
   1    9    6     6     1    4.1457E+01  2.7904E-01   4.1178E+01  0.000E+00  0.000E+00  0.000E+00  1.04438E+03  1.651E+00  1.200E+01  6.000E-02  1.550E+00
   1   10    7     6     2    4.1178E+01  2.7864E-01   4.0900E+01  0.000E+00  0.000E+00  0.000E+00  1.03983E+03  1.644E+00  1.200E+01  6.000E-02  1.548E+00
   1   11    7     6     3    4.0900E+01  2.7823E-01   4.0621E+01  0.000E+00  0.000E+00  0.000E+00  1.03527E+03  1.637E+00  1.200E+01  6.000E-02  1.546E+00
   1   12    7     6     4    4.0621E+01  2.7783E-01   4.0344E+01  0.000E+00  0.000E+00  0.000E+00  1.03072E+03  1.631E+00  1.200E+01  6.000E-02  1.544E+00
   1   13    7     6     5    4.0344E+01  2.3430E-02   4.0320E+01  0.000E+00  0.000E+00  0.000E+00  1.02754E+03  1.627E+00  1.200E+01  2.400E-02  3.254E-01
   1   14    9     7     1    1.5000E+02  1.3738E+00   1.4863E+02  0.000E+00  0.000E+00  0.000E+00  1.03987E+03  2.288E+00  5.529E+01  5.593E-01  8.188E-01
   1   13    8     7     2    1.4863E+02  1.9773E+00   1.4665E+02  0.000E+00  0.000E+00  0.000E+00  1.03478E+03  2.279E+00  5.525E+01  6.147E-01  1.072E+00
   1   13    7     7     3    1.4665E+02  1.7468E+00   1.4490E+02  0.000E+00  0.000E+00  0.000E+00  1.02969E+03  2.269E+00  5.521E+01  5.584E-01  1.043E+00
   1   13    6     8     1    1.8522E+02  1.2880E+00   1.8393E+02  0.000E+00  0.000E+00  0.000E+00  1.02492E+03  3.045E+00  4.415E+01  4.499E-01  9.543E-01
   1   13    5     8     2    1.8393E+02  5.0003E-01   1.8343E+02  0.000E+00  0.000E+00  0.000E+00  1.01866E+03  3.039E+00  4.407E+01  4.491E-01  3.712E-01
   1   13    4     8     3    1.8343E+02 -1.0254E+00   1.8446E+02  0.000E+00  0.000E+00  0.000E+00  1.01242E+03  3.041E+00  4.409E+01  4.493E+00 -7.607E-02
   1   13    3     8     4    1.8446E+02 -2.7462E+00   1.8721E+02  0.000E+00  0.000E+00  0.000E+00  1.00618E+03  3.052E+00  4.426E+01  4.510E+00 -2.030E-01
   1   13    2     8     5    1.8721E+02 -1.9449E+00   1.8915E+02  0.000E+00  0.000E+00  0.000E+00  9.99942E+02  3.067E+00  4.447E+01  4.532E+00 -1.431E-01
   1   13    1     8     6    1.8915E+02 -1.6499E+00   1.9080E+02  0.000E+00  0.000E+00  0.000E+00  9.94953E+02  3.078E+00  4.463E+01  2.729E+00 -2.016E-01
   1    8    6     9     1    0.0000E+00  0.0000E+00   0.0000E+00  0.000E+00  0.000E+00  0.000E+00  1.07875E+03  0.000E+00  4.000E+00  0.000E+00  1.000E+00
   1    8    5     9     2    0.0000E+00  0.0000E+00   0.0000E+00  0.000E+00  0.000E+00  0.000E+00  1.07825E+03  0.000E+00  4.000E+00  0.000E+00  1.000E+00





UNSATURATED ZONE PACKAGE VOLUMETRIC BUDGET FOR  TIME STEP    30 STRESS PERIOD   15
  ------------------------------------------------------------------------------



     CUMULATIVE VOLUMES      L**3       RATES FOR THIS TIME STEP      L**3/T
     ------------------                 ------------------------

           IN:                                      IN:
           ---                                      ---
        INFILTRATION =  3324304157.0145          INFILTRATION =           0.8475

          OUT:                                     OUT:
          ----                                     ----
              UZF ET =   434636163.0818                UZF ET =           0.7500
        UZF RECHARGE =  2470076224.7686          UZF RECHARGE =           7.2094

            IN - OUT =   419591769.1641              IN - OUT =          -7.1119

          STORAGE:                                 STORAGE:
          --------                                 --------
      STORAGE CHANGE =   419792349.2077        STORAGE CHANGE =          -7.1119

 PERCENT DISCREPANCY IS DIFFERENCE BETWEEN IN-OUT MINUS CHANGE IN STORAGE
 DIVIDED BY THE AVERAGE OF IN AND OUT TIMES 100

 PERCENT DISCREPANCY =          -0.00     PERCENT DISCREPANCY =           0.00






1
  VOLUMETRIC BUDGET FOR AGRICULTURAL FIELDS AT  END OF TIME STEP   30, STRESS PERIOD  15
  ------------------------------------------------------------------------------

     CUMULATIVE VOLUMES      L**3       RATES FOR THIS TIME STEP      L**3/T
     ------------------                 ------------------------

           IN:                                      IN:
           ---                                      ---
               AG WELLS  =  3104902144.0000                 AG WELLS  =           0.0000
      DIVERSION SEGMENTS =   188148784.0000        DIVERSION SEGMENTS =           0.0000
           GW IRRIGATION =           0.0000             GW IRRIGATION =           0.0000
           SW IRRIGATION =           0.0000             SW IRRIGATION =           0.0000
        SYSTEM LOSSES GW =           0.0000          SYSTEM LOSSES GW =           0.0000
        SYSTEM LOSSES SW =           0.0000          SYSTEM LOSSES SW =           0.0000

                TOTAL IN =  3293050880.0000                  TOTAL IN =           0.0000

          OUT:                                     OUT:
          ----                                     ----
               AG WELLS  =           0.0000                 AG WELLS  =           0.0000
      DIVERSION SEGMENTS =           0.0000        DIVERSION SEGMENTS =           0.0000
           GW IRRIGATION =  3104902144.0000             GW IRRIGATION =           0.0000
           SW IRRIGATION =   188152464.0000             SW IRRIGATION =           0.0000
        SYSTEM LOSSES GW =           0.0000          SYSTEM LOSSES GW =           0.0000
        SYSTEM LOSSES SW =           0.0000          SYSTEM LOSSES SW =           0.0000

               TOTAL OUT =  3293054720.0000                 TOTAL OUT =           0.0000

                IN - OUT =       -3840.0000                  IN - OUT =           0.0000

     PERCENT DISCREPANCY =          -0.00         PERCENT DISCREPANCY =           0.00



1
  VOLUMETRIC BUDGET FOR ENTIRE MODEL AT END OF TIME STEP   30, STRESS PERIOD  15
  ------------------------------------------------------------------------------

     CUMULATIVE VOLUMES      L**3       RATES FOR THIS TIME STEP      L**3/T
     ------------------                 ------------------------

           IN:                                      IN:
           ---                                      ---
             STORAGE     =  3340653568.0000               STORAGE     =           3.1711
       CONSTANT HEAD     =           0.0000         CONSTANT HEAD     =           0.0000
     HEAD DEP BOUNDS     =    10628664.0000       HEAD DEP BOUNDS     =           0.2883
      STREAM LEAKAGE     =   435073376.0000        STREAM LEAKAGE     =          13.3164
        UZF RECHARGE     =  2470074112.0000          UZF RECHARGE     =           7.2094
               GW ET     =           0.0000                 GW ET     =           0.0000
     SURFACE LEAKAGE     =           0.0000       SURFACE LEAKAGE     =           0.0000
           AG WELLS      =           0.0000             AG WELLS      =           0.0000

                TOTAL IN =  6256429568.0000                  TOTAL IN =          23.9852

          OUT:                                     OUT:
          ----                                     ----
             STORAGE     =  2771152128.0000               STORAGE     =          16.3285
       CONSTANT HEAD     =           0.0000         CONSTANT HEAD     =           0.0000
     HEAD DEP BOUNDS     =    10626662.0000       HEAD DEP BOUNDS     =           0.2872
      STREAM LEAKAGE     =   369700832.0000        STREAM LEAKAGE     =           7.3663
        UZF RECHARGE     =           0.0000          UZF RECHARGE     =           0.0000
               GW ET     =           0.0000                 GW ET     =           0.0000
     SURFACE LEAKAGE     =           0.0000       SURFACE LEAKAGE     =           0.0000
           AG WELLS      =  3104902144.0000             AG WELLS      =           0.0000

               TOTAL OUT =  6256381952.0000                 TOTAL OUT =          23.9821

                IN - OUT =       47616.0000                  IN - OUT =       3.1166E-03

     PERCENT DISCREPANCY =           0.00         PERCENT DISCREPANCY =           0.01






         TIME SUMMARY AT END OF TIME STEP   30 IN STRESS PERIOD   15
                    SECONDS     MINUTES      HOURS       DAYS        YEARS
                    -----------------------------------------------------------
   TIME STEP LENGTH  87667.      1461.1      24.352      1.0147     2.77799E-03
 STRESS PERIOD TIME 2.63000E+06  43833.      730.56      30.440     8.33397E-02
         TOTAL TIME 3.69063E+07 6.15106E+05  10252.      427.16      1.1695    
1
1
                            STRESS PERIOD NO.   16, LENGTH =   2630000.    
                            -----------------------------------------------

                              NUMBER OF TIME STEPS =    30

                               MULTIPLIER FOR DELT =     1.000

                            INITIAL TIME STEP SIZE =   87666.66    

 REUSING NON-PARAMETER GHB CELLS FROM LAST STRESS PERIOD

      2 GHB CELLS

 REUSING STREAM SEGMENT DATA FROM LAST STRESS PERIOD



            AREAL INFILTRATION RATE
 READING ON UNIT   19 WITH FORMAT: (FREE)              

            1           2           3           4           5           6           7           8           9          10
 ........................................................................................................................
   1   1.0000E-10  2.0000E-10   0.000       0.000       0.000       0.000       0.000       0.000       0.000       0.000    
   2   2.0000E-10  1.0000E-10  2.0000E-10   0.000       0.000      8.0000E-10  8.0000E-10  5.0000E-10   0.000       0.000    
   3    0.000      5.0000E-10  1.0000E-10  1.0000E-10  8.0000E-10  8.0000E-10  5.0000E-10  5.0000E-10   0.000       0.000    
   4   8.0000E-10  5.0000E-10  1.0000E-10  1.0000E-10  1.0000E-10  1.0000E-10  1.0000E-10  1.0000E-10  2.0000E-10   0.000    
   5   8.0000E-10  5.0000E-10  1.0000E-10  1.0000E-10  1.0000E-10  1.0000E-10  1.0000E-10  1.0000E-10  1.0000E-10  1.0000E-10
   6   8.0000E-10  5.0000E-10  5.0000E-10  2.0000E-10  2.0000E-10  1.0000E-10  1.0000E-10  1.0000E-10  1.0000E-10  5.0000E-10
   7   8.0000E-10  5.0000E-10  5.0000E-10  2.0000E-10  2.0000E-10  1.0000E-10  1.0000E-10  2.0000E-10  2.0000E-10   0.000    
   8    0.000      5.0000E-10  5.0000E-10  2.0000E-10  2.0000E-10  1.0000E-10  1.0000E-10  2.0000E-10  5.0000E-10   0.000    
   9    0.000      5.0000E-10  5.0000E-10  2.0000E-10  2.0000E-10  1.0000E-10  1.0000E-10  2.0000E-10  5.0000E-10   0.000    
  10    0.000      5.0000E-10  5.0000E-10  2.0000E-10  2.0000E-10  1.0000E-10  1.0000E-10  2.0000E-10  5.0000E-10  8.0000E-10
  11    0.000      1.0000E-10  1.0000E-10  1.0000E-10  1.0000E-10  1.0000E-10  1.0000E-10  2.0000E-10  5.0000E-10   0.000    
  12   1.0000E-10  1.0000E-10  1.0000E-10  1.0000E-10  1.0000E-10  1.0000E-10  1.0000E-10  1.0000E-10  2.0000E-10   0.000    
  13   1.0000E-10  1.0000E-10  2.0000E-10  2.0000E-10  2.0000E-10  2.0000E-10  2.0000E-10  1.0000E-10  1.0000E-10   0.000    
  14    0.000      2.0000E-10  5.0000E-10  5.0000E-10  5.0000E-10  5.0000E-10  5.0000E-10  2.0000E-10  1.0000E-10   0.000    
  15    0.000       0.000      8.0000E-10  8.0000E-10  8.0000E-10  8.0000E-10   0.000       0.000       0.000       0.000    

                  ET RATE =  5.000000E-10

 USING ET EXTINCTION DEPTH FROM PREVIOUS STRESS PERIOD. CURRENT PERIOD IS:      16

 USING EXTINCTION WATER CONTENT FROM PREVIOUS STRESS PERIOD. CURRENT PERIOD IS:      16

 USING AIR ENTRY PRESSURE FROM PREVIOUS STRESS PERIOD. CURRENT PERIOD IS:      16

 USING ROOT PRESSURE HEAD FROM PREVIOUS STRESS PERIOD. CURRENT PERIOD IS:      16

 USING ROOT ACTIVITY FROM PREVIOUS STRESS PERIOD. CURRENT PERIOD IS:      16

 PROCESSING AG STRESS PERIOD DATA

 READING AG STRESS PERIOD DATA

 READING IRRIGATION SEGMENT

 READING IRRIGATION WELL

 READING SUPPLEMENTAL WELL

 END PROCESSING AG STRESS PERIOD DATA OPTIONS
 
 SOLVING FOR HEAD 
                                                   Max.-Head-Change                         Max.-Flux-Residual
  Residual-Control   Outer-Iter.   Inner-Iter.     Column Row Layer    Maximum-Head-Change  Column Row Layer    Maximum-Flux-Residual          L2-NORM 
          0                 1           2             3    7     1       0.1562319795E-01       4   13    1         0.6034290504E+00      0.2447595824E+01
          0                 2           2             4    8     1       0.1660858568E-02       4    8    1         0.8881975055E-01      0.3115518813E+00
          0                 3           2             4    8     1       0.4673135312E-03       4    8    1         0.2465770111E-01      0.5936502306E-01
          0                 4           2             4    8     1       0.1314864022E-03       4    8    1         0.6959147745E-02      0.1609581436E-01
          0                 5           1             4    8     1       0.3699579800E-04       4    8    1         0.1957228925E-02      0.4514062112E-02

    ------------------------------------------------
       NWT REQUIRED            5 OUTER ITERATIONS 
       AND A TOTAL OF          9 INNER ITERATIONS.
    ------------------------------------------------

 NO OUTPUT CONTROL FOR STRESS PERIOD   16   TIME STEP    1
 
 SOLVING FOR HEAD 
                                                   Max.-Head-Change                         Max.-Flux-Residual
  Residual-Control   Outer-Iter.   Inner-Iter.     Column Row Layer    Maximum-Head-Change  Column Row Layer    Maximum-Flux-Residual          L2-NORM 
          0                 1           2             3    7     1       0.1550333869E-01       4   13    1         0.5462410349E+00      0.2407827245E+01
          0                 2           2             4    8     1       0.1665146174E-02       4    8    1         0.8903707562E-01      0.3091023641E+00
          0                 3           2             4    8     1       0.4685526178E-03       4    8    1         0.2472233356E-01      0.5953602807E-01
          0                 4           2             4    8     1       0.1318439413E-03       4    8    1         0.6977705344E-02      0.1616653439E-01
          0                 5           1             4    7     1       0.3718950950E-04       4    8    1         0.1962585765E-02      0.4534158672E-02

    ------------------------------------------------
       NWT REQUIRED            5 OUTER ITERATIONS 
       AND A TOTAL OF          9 INNER ITERATIONS.
    ------------------------------------------------

 NO OUTPUT CONTROL FOR STRESS PERIOD   16   TIME STEP    2
 
 SOLVING FOR HEAD 
                                                   Max.-Head-Change                         Max.-Flux-Residual
  Residual-Control   Outer-Iter.   Inner-Iter.     Column Row Layer    Maximum-Head-Change  Column Row Layer    Maximum-Flux-Residual          L2-NORM 
          0                 1           2             3    7     1       0.1538572721E-01       6    8    1         0.5227632355E+00      0.2372895158E+01
          0                 2           2             4    8     1       0.1669139648E-02       4    8    1         0.8923923925E-01      0.3070008898E+00
          0                 3           2             4    8     1       0.4697068187E-03       4    8    1         0.2478255034E-01      0.5970061124E-01
          0                 4           2             4    8     1       0.1321770208E-03       4    8    1         0.6994991388E-02      0.1623254032E-01
          0                 5           1             4    7     1       0.3740982557E-04       4    8    1         0.1967576258E-02      0.4552899233E-02

    ------------------------------------------------
       NWT REQUIRED            5 OUTER ITERATIONS 
       AND A TOTAL OF          9 INNER ITERATIONS.
    ------------------------------------------------

 NO OUTPUT CONTROL FOR STRESS PERIOD   16   TIME STEP    3
 
 SOLVING FOR HEAD 
                                                   Max.-Head-Change                         Max.-Flux-Residual
  Residual-Control   Outer-Iter.   Inner-Iter.     Column Row Layer    Maximum-Head-Change  Column Row Layer    Maximum-Flux-Residual          L2-NORM 
          0                 1           2             3    7     1       0.1527053785E-01       6    8    1         0.5191373299E+00      0.2342125790E+01
          0                 2           2             4    8     1       0.1672908696E-02       4    8    1         0.8942998260E-01      0.3051950072E+00
          0                 3           2             4    8     1       0.4707952869E-03       4    8    1         0.2483938334E-01      0.5985923455E-01
          0                 4           2             4    8     1       0.1324909122E-03       4    8    1         0.7011289189E-02      0.1629452730E-01
          0                 5           1             4    7     1       0.3761944551E-04       4    8    1         0.1972278461E-02      0.4570498033E-02

    ------------------------------------------------
       NWT REQUIRED            5 OUTER ITERATIONS 
       AND A TOTAL OF          9 INNER ITERATIONS.
    ------------------------------------------------

 NO OUTPUT CONTROL FOR STRESS PERIOD   16   TIME STEP    4
 
 SOLVING FOR HEAD 
                                                   Max.-Head-Change                         Max.-Flux-Residual
  Residual-Control   Outer-Iter.   Inner-Iter.     Column Row Layer    Maximum-Head-Change  Column Row Layer    Maximum-Flux-Residual          L2-NORM 
          0                 1           2             3    7     1       0.1515721117E-01       6    8    1         0.5156163642E+00      0.2314907120E+01
          0                 2           2             4    8     1       0.1676455479E-02       4    8    1         0.8960940674E-01      0.3036324266E+00
          0                 3           2             4    8     1       0.4718188259E-03       4    8    1         0.2489286653E-01      0.6001047904E-01
          0                 4           2             4    8     1       0.1327858918E-03       4    8    1         0.7026611536E-02      0.1635216188E-01
          0                 5           1             4    7     1       0.3781860718E-04       4    7    1         0.1979507486E-02      0.4586876452E-02

    ------------------------------------------------
       NWT REQUIRED            5 OUTER ITERATIONS 
       AND A TOTAL OF          9 INNER ITERATIONS.
    ------------------------------------------------

 NO OUTPUT CONTROL FOR STRESS PERIOD   16   TIME STEP    5
 
 SOLVING FOR HEAD 
                                                   Max.-Head-Change                         Max.-Flux-Residual
  Residual-Control   Outer-Iter.   Inner-Iter.     Column Row Layer    Maximum-Head-Change  Column Row Layer    Maximum-Flux-Residual          L2-NORM 
          0                 1           2             3    7     1       0.1504641762E-01       6    8    1         0.5121958371E+00      0.2290736508E+01
          0                 2           2             4    8     1       0.1679717382E-02       4    8    1         0.8977405034E-01      0.3022738973E+00
          0                 3           2             4    8     1       0.4727606889E-03       4    8    1         0.2494208199E-01      0.6015378814E-01
          0                 4           2             4    7     1       0.1331181592E-03       4    8    1         0.7040712371E-02      0.1640592176E-01
          0                 5           1             4    7     1       0.3800749755E-04       4    7    1         0.1989537066E-02      0.4602145188E-02

    ------------------------------------------------
       NWT REQUIRED            5 OUTER ITERATIONS 
       AND A TOTAL OF          9 INNER ITERATIONS.
    ------------------------------------------------

 NO OUTPUT CONTROL FOR STRESS PERIOD   16   TIME STEP    6
 
 SOLVING FOR HEAD 
                                                   Max.-Head-Change                         Max.-Flux-Residual
  Residual-Control   Outer-Iter.   Inner-Iter.     Column Row Layer    Maximum-Head-Change  Column Row Layer    Maximum-Flux-Residual          L2-NORM 
          0                 1           2             3    7     1       0.1493735278E-01       6    8    1         0.5088714585E+00      0.2269186084E+01
          0                 2           2             4    8     1       0.1682766836E-02       4    8    1         0.8992783340E-01      0.3010864046E+00
          0                 3           2             4    8     1       0.4736407641E-03       4    8    1         0.2498809961E-01      0.6028938667E-01
          0                 4           2             4    7     1       0.1337558404E-03       4    8    1         0.7053885975E-02      0.1645599976E-01
          0                 5           1             4    7     1       0.3818598692E-04       4    7    1         0.1999016546E-02      0.4616370354E-02

    ------------------------------------------------
       NWT REQUIRED            5 OUTER ITERATIONS 
       AND A TOTAL OF          9 INNER ITERATIONS.
    ------------------------------------------------

 NO OUTPUT CONTROL FOR STRESS PERIOD   16   TIME STEP    7
 
 SOLVING FOR HEAD 
                                                   Max.-Head-Change                         Max.-Flux-Residual
  Residual-Control   Outer-Iter.   Inner-Iter.     Column Row Layer    Maximum-Head-Change  Column Row Layer    Maximum-Flux-Residual          L2-NORM 
          0                 1           2             3    7     1       0.1483044645E-01       6    8    1         0.5056393427E+00      0.2249861099E+01
          0                 2           2             4    8     1       0.1685574082E-02       4    8    1         0.9006909528E-01      0.3000391580E+00
          0                 3           2             4    8     1       0.4744511315E-03       4    8    1         0.2503048444E-01      0.6041639788E-01
          0                 4           2             4    7     1       0.1343598591E-03       4    8    1         0.7066016053E-02      0.1650241506E-01
          0                 5           1             4    7     1       0.3835492817E-04       4    7    1         0.2007993809E-02      0.4629560697E-02

    ------------------------------------------------
       NWT REQUIRED            5 OUTER ITERATIONS 
       AND A TOTAL OF          9 INNER ITERATIONS.
    ------------------------------------------------

 NO OUTPUT CONTROL FOR STRESS PERIOD   16   TIME STEP    8
 
 SOLVING FOR HEAD 
                                                   Max.-Head-Change                         Max.-Flux-Residual
  Residual-Control   Outer-Iter.   Inner-Iter.     Column Row Layer    Maximum-Head-Change  Column Row Layer    Maximum-Flux-Residual          L2-NORM 
          0                 1           2             3    7     1       0.1472563460E-01       6    8    1         0.5024954862E+00      0.2232459494E+01
          0                 2           2             4    8     1       0.1688143582E-02       4    8    1         0.9019808700E-01      0.2991234421E+00
          0                 3           2             4    8     1       0.4751929955E-03       4    8    1         0.2506930160E-01      0.6053508466E-01
          0                 4           2             4    7     1       0.1349285749E-03       4    8    1         0.7077120422E-02      0.1654528043E-01
          0                 5           1             4    7     1       0.3851389712E-04       4    7    1         0.2016444978E-02      0.4641743076E-02

    ------------------------------------------------
       NWT REQUIRED            5 OUTER ITERATIONS 
       AND A TOTAL OF          9 INNER ITERATIONS.
    ------------------------------------------------

 NO OUTPUT CONTROL FOR STRESS PERIOD   16   TIME STEP    9
 
 SOLVING FOR HEAD 
                                                   Max.-Head-Change                         Max.-Flux-Residual
  Residual-Control   Outer-Iter.   Inner-Iter.     Column Row Layer    Maximum-Head-Change  Column Row Layer    Maximum-Flux-Residual          L2-NORM 
          0                 1           2             3    7     1       0.1462236765E-01       6    8    1         0.4994363860E+00      0.2216679317E+01
          0                 2           2             4    8     1       0.1690514965E-02       4    8    1         0.9031686716E-01      0.2982738130E+00
          0                 3           2             4    8     1       0.4758777027E-03       4    8    1         0.2510514455E-01      0.6064467374E-01
          0                 4           2             4    7     1       0.1354690036E-03       4    7    1         0.7089931321E-02      0.1658492239E-01
          0                 5           1             4    7     1       0.3866484802E-04       4    7    1         0.2024474239E-02      0.4653022968E-02

    ------------------------------------------------
       NWT REQUIRED            5 OUTER ITERATIONS 
       AND A TOTAL OF          9 INNER ITERATIONS.
    ------------------------------------------------

 NO OUTPUT CONTROL FOR STRESS PERIOD   16   TIME STEP   10
 
 SOLVING FOR HEAD 
                                                   Max.-Head-Change                         Max.-Flux-Residual
  Residual-Control   Outer-Iter.   Inner-Iter.     Column Row Layer    Maximum-Head-Change  Column Row Layer    Maximum-Flux-Residual          L2-NORM 
          0                 1           2             3    7     1       0.1452132675E-01       6    8    1         0.4964582750E+00      0.2202280222E+01
          0                 2           2             4    8     1       0.1692656899E-02       4    8    1         0.9042379723E-01      0.2975288145E+00
          0                 3           2             4    8     1       0.4764963436E-03       4    8    1         0.2513754510E-01      0.6074632037E-01
          0                 4           2             4    7     1       0.1359737629E-03       4    7    1         0.7116785963E-02      0.1662133911E-01
          0                 5           1             4    7     1       0.3880577596E-04       4    7    1         0.2031972711E-02      0.4663380617E-02

    ------------------------------------------------
       NWT REQUIRED            5 OUTER ITERATIONS 
       AND A TOTAL OF          9 INNER ITERATIONS.
    ------------------------------------------------

 NO OUTPUT CONTROL FOR STRESS PERIOD   16   TIME STEP   11
 
 SOLVING FOR HEAD 
                                                   Max.-Head-Change                         Max.-Flux-Residual
  Residual-Control   Outer-Iter.   Inner-Iter.     Column Row Layer    Maximum-Head-Change  Column Row Layer    Maximum-Flux-Residual          L2-NORM 
          0                 1           2             3    7     1       0.1442171779E-01       6    8    1         0.4935649717E+00      0.2189071190E+01
          0                 2           2             4    8     1       0.1694545660E-02       4    8    1         0.9051747581E-01      0.2968212437E+00
          0                 3           2             4    7     1       0.4777649046E-03       4    8    1         0.2516616451E-01      0.6083846831E-01
          0                 4           2             4    7     1       0.1364515211E-03       4    7    1         0.7142228215E-02      0.1665456256E-01
          0                 5           1             4    7     1       0.3893899573E-04       4    7    1         0.2039067637E-02      0.4672839904E-02

    ------------------------------------------------
       NWT REQUIRED            5 OUTER ITERATIONS 
       AND A TOTAL OF          9 INNER ITERATIONS.
    ------------------------------------------------

 NO OUTPUT CONTROL FOR STRESS PERIOD   16   TIME STEP   12
 
 SOLVING FOR HEAD 
                                                   Max.-Head-Change                         Max.-Flux-Residual
  Residual-Control   Outer-Iter.   Inner-Iter.     Column Row Layer    Maximum-Head-Change  Column Row Layer    Maximum-Flux-Residual          L2-NORM 
          0                 1           2             3    7     1       0.1432422302E-01       6    8    1         0.4907382356E+00      0.2176906283E+01
          0                 2           2             4    8     1       0.1696284421E-02       4    8    1         0.9060353362E-01      0.2961821039E+00
          0                 3           2             4    7     1       0.4793706203E-03       4    8    1         0.2519252116E-01      0.6092339741E-01
          0                 4           2             4    7     1       0.1368990150E-03       4    7    1         0.7166063090E-02      0.1668508083E-01
          0                 5           1             4    7     1       0.3906374124E-04       4    7    1         0.2045712661E-02      0.4681533486E-02

    ------------------------------------------------
       NWT REQUIRED            5 OUTER ITERATIONS 
       AND A TOTAL OF          9 INNER ITERATIONS.
    ------------------------------------------------

 NO OUTPUT CONTROL FOR STRESS PERIOD   16   TIME STEP   13
 
 SOLVING FOR HEAD 
                                                   Max.-Head-Change                         Max.-Flux-Residual
  Residual-Control   Outer-Iter.   Inner-Iter.     Column Row Layer    Maximum-Head-Change  Column Row Layer    Maximum-Flux-Residual          L2-NORM 
          0                 1           2             3    7     1       0.1422805213E-01       6    8    1         0.4879899919E+00      0.2165644987E+01
          0                 2           2             4    8     1       0.1697778030E-02       4    8    1         0.9067679266E-01      0.2955854032E+00
          0                 3           2             4    7     1       0.4808689993E-03       4    8    1         0.2521521343E-01      0.6099966553E-01
          0                 4           2             4    7     1       0.1373161407E-03       4    7    1         0.7188297774E-02      0.1671261379E-01
          0                 5           1             4    7     1       0.3917989831E-04       4    7    1         0.2051904968E-02      0.4689382955E-02

    ------------------------------------------------
       NWT REQUIRED            5 OUTER ITERATIONS 
       AND A TOTAL OF          9 INNER ITERATIONS.
    ------------------------------------------------

 NO OUTPUT CONTROL FOR STRESS PERIOD   16   TIME STEP   14
 
 SOLVING FOR HEAD 
                                                   Max.-Head-Change                         Max.-Flux-Residual
  Residual-Control   Outer-Iter.   Inner-Iter.     Column Row Layer    Maximum-Head-Change  Column Row Layer    Maximum-Flux-Residual          L2-NORM 
          0                 1           2             3    7     1       0.1413389185E-01       6    8    1         0.4853096315E+00      0.2155160770E+01
          0                 2           2             4    8     1       0.1699066949E-02       4    8    1         0.9073941622E-01      0.2950243700E+00
          0                 3           2             4    7     1       0.4822657296E-03       4    8    1         0.2523484099E-01      0.6106805992E-01
          0                 4           2             4    7     1       0.1377047067E-03       4    7    1         0.7209020087E-02      0.1673749549E-01
          0                 5           1             4    7     1       0.3928802870E-04       4    7    1         0.2057672290E-02      0.4696478011E-02

    ------------------------------------------------
       NWT REQUIRED            5 OUTER ITERATIONS 
       AND A TOTAL OF          9 INNER ITERATIONS.
    ------------------------------------------------

 NO OUTPUT CONTROL FOR STRESS PERIOD   16   TIME STEP   15
 
 SOLVING FOR HEAD 
                                                   Max.-Head-Change                         Max.-Flux-Residual
  Residual-Control   Outer-Iter.   Inner-Iter.     Column Row Layer    Maximum-Head-Change  Column Row Layer    Maximum-Flux-Residual          L2-NORM 
          0                 1           2             3    7     1       0.1404119746E-01       6    8    1         0.4827015730E+00      0.2145353652E+01
          0                 2           2             4    8     1       0.1700158963E-02       4    8    1         0.9079174397E-01      0.2944915206E+00
          0                 3           2             4    7     1       0.4835826747E-03       4    7    1         0.2527320052E-01      0.6112841312E-01
          0                 4           2             4    7     1       0.1380704988E-03       4    7    1         0.7228550089E-02      0.1675970093E-01
          0                 5           1             4    7     1       0.3938966432E-04       4    7    1         0.2063099316E-02      0.4702824368E-02

    ------------------------------------------------
       NWT REQUIRED            5 OUTER ITERATIONS 
       AND A TOTAL OF          9 INNER ITERATIONS.
    ------------------------------------------------

 NO OUTPUT CONTROL FOR STRESS PERIOD   16   TIME STEP   16
 
 SOLVING FOR HEAD 
                                                   Max.-Head-Change                         Max.-Flux-Residual
  Residual-Control   Outer-Iter.   Inner-Iter.     Column Row Layer    Maximum-Head-Change  Column Row Layer    Maximum-Flux-Residual          L2-NORM 
          0                 1           2             3    7     1       0.1394992683E-01       6    8    1         0.4801482010E+00      0.2136126677E+01
          0                 2           2             4    8     1       0.1701090156E-02       4    8    1         0.9083582219E-01      0.2939817082E+00
          0                 3           2             4    7     1       0.4847937525E-03       4    7    1         0.2533809167E-01      0.6118143986E-01
          0                 4           2             4    7     1       0.1384066791E-03       4    7    1         0.7246506797E-02      0.1677947718E-01
          0                 5           1             4    7     1       0.3948301439E-04       4    7    1         0.2068086218E-02      0.4708480516E-02

    ------------------------------------------------
       NWT REQUIRED            5 OUTER ITERATIONS 
       AND A TOTAL OF          9 INNER ITERATIONS.
    ------------------------------------------------

 NO OUTPUT CONTROL FOR STRESS PERIOD   16   TIME STEP   17
 
 SOLVING FOR HEAD 
                                                   Max.-Head-Change                         Max.-Flux-Residual
  Residual-Control   Outer-Iter.   Inner-Iter.     Column Row Layer    Maximum-Head-Change  Column Row Layer    Maximum-Flux-Residual          L2-NORM 
          0                 1           2             3    7     1       0.1386052021E-01       6    8    1         0.4776618388E+00      0.2127419426E+01
          0                 2           2             4    8     1       0.1701800906E-02       4    8    1         0.9086831136E-01      0.2934899079E+00
          0                 3           2             4    7     1       0.4859218253E-03       4    7    1         0.2539861455E-01      0.6122692649E-01
          0                 4           2             4    7     1       0.1387193208E-03       4    7    1         0.7263225336E-02      0.1679681360E-01
          0                 5           1             4    7     1       0.3956969262E-04       4    7    1         0.2072721998E-02      0.4713448811E-02

    ------------------------------------------------
       NWT REQUIRED            5 OUTER ITERATIONS 
       AND A TOTAL OF          9 INNER ITERATIONS.
    ------------------------------------------------

 NO OUTPUT CONTROL FOR STRESS PERIOD   16   TIME STEP   18
 
 SOLVING FOR HEAD 
                                                   Max.-Head-Change                         Max.-Flux-Residual
  Residual-Control   Outer-Iter.   Inner-Iter.     Column Row Layer    Maximum-Head-Change  Column Row Layer    Maximum-Flux-Residual          L2-NORM 
          0                 1           2             3    7     1       0.1377219570E-01       6    8    1         0.4752396938E+00      0.2119158432E+01
          0                 2           2             4    7     1       0.1704459189E-02       4    8    1         0.9089316189E-01      0.2930136293E+00
          0                 3           2             4    7     1       0.4869609953E-03       4    7    1         0.2545441853E-01      0.6126584306E-01
          0                 4           2             4    7     1       0.1390070374E-03       4    7    1         0.7278621825E-02      0.1681201512E-01
          0                 5           1             4    7     1       0.3964938000E-04       4    7    1         0.2076987076E-02      0.4717810666E-02

    ------------------------------------------------
       NWT REQUIRED            5 OUTER ITERATIONS 
       AND A TOTAL OF          9 INNER ITERATIONS.
    ------------------------------------------------

 NO OUTPUT CONTROL FOR STRESS PERIOD   16   TIME STEP   19
 
 SOLVING FOR HEAD 
                                                   Max.-Head-Change                         Max.-Flux-Residual
  Residual-Control   Outer-Iter.   Inner-Iter.     Column Row Layer    Maximum-Head-Change  Column Row Layer    Maximum-Flux-Residual          L2-NORM 
          0                 1           2             3    7     1       0.1368564777E-01       6    8    1         0.4728645288E+00      0.2111291511E+01
          0                 2           2             4    7     1       0.1707944906E-02       4    8    1         0.9090881978E-01      0.2925481828E+00
          0                 3           2             4    7     1       0.4879242288E-03       4    7    1         0.2550621393E-01      0.6129787421E-01
          0                 4           2             4    7     1       0.1392733013E-03       4    7    1         0.7292886825E-02      0.1682503689E-01
          0                 5           1             4    7     1       0.3972300782E-04       4    7    1         0.2080932471E-02      0.4721559743E-02

    ------------------------------------------------
       NWT REQUIRED            5 OUTER ITERATIONS 
       AND A TOTAL OF          9 INNER ITERATIONS.
    ------------------------------------------------

 NO OUTPUT CONTROL FOR STRESS PERIOD   16   TIME STEP   20
 
 SOLVING FOR HEAD 
                                                   Max.-Head-Change                         Max.-Flux-Residual
  Residual-Control   Outer-Iter.   Inner-Iter.     Column Row Layer    Maximum-Head-Change  Column Row Layer    Maximum-Flux-Residual          L2-NORM 
          0                 1           2             3    7     1       0.1360033983E-01       6    8    1         0.4705492313E+00      0.2103769344E+01
          0                 2           2             4    7     1       0.1711095734E-02       4    8    1         0.9091379092E-01      0.2920892941E+00
          0                 3           2             4    7     1       0.4887934559E-03       4    7    1         0.2555302498E-01      0.6132265985E-01
          0                 4           2             4    7     1       0.1395131713E-03       4    7    1         0.7305753297E-02      0.1683578023E-01
          0                 5           1             4    7     1       0.3978922384E-04       4    7    1         0.2084485160E-02      0.4724662540E-02

    ------------------------------------------------
       NWT REQUIRED            5 OUTER ITERATIONS 
       AND A TOTAL OF          9 INNER ITERATIONS.
    ------------------------------------------------

 NO OUTPUT CONTROL FOR STRESS PERIOD   16   TIME STEP   21
 
 SOLVING FOR HEAD 
                                                   Max.-Head-Change                         Max.-Flux-Residual
  Residual-Control   Outer-Iter.   Inner-Iter.     Column Row Layer    Maximum-Head-Change  Column Row Layer    Maximum-Flux-Residual          L2-NORM 
          0                 1           2             3    7     1       0.1351647600E-01       6    8    1         0.4682837847E+00      0.2096546559E+01
          0                 2           2             4    7     1       0.1713998436E-02       4    8    1         0.9091198014E-01      0.2916357120E+00
          0                 3           2             4    7     1       0.4895923878E-03       4    7    1         0.2559613280E-01      0.6134090980E-01
          0                 4           2             4    7     1       0.1397331343E-03       4    7    1         0.7317571600E-02      0.1684447058E-01
          0                 5           1             4    7     1       0.3984980424E-04       4    7    1         0.2087741006E-02      0.4727186863E-02

    ------------------------------------------------
       NWT REQUIRED            5 OUTER ITERATIONS 
       AND A TOTAL OF          9 INNER ITERATIONS.
    ------------------------------------------------

 NO OUTPUT CONTROL FOR STRESS PERIOD   16   TIME STEP   22
 
 SOLVING FOR HEAD 
                                                   Max.-Head-Change                         Max.-Flux-Residual
  Residual-Control   Outer-Iter.   Inner-Iter.     Column Row Layer    Maximum-Head-Change  Column Row Layer    Maximum-Flux-Residual          L2-NORM 
          0                 1           2             3    7     1       0.1343401714E-01       6    8    1         0.4660735310E+00      0.2089608725E+01
          0                 2           2             4    7     1       0.1716662398E-02       4    8    1         0.9090186056E-01      0.2911888607E+00
          0                 3           2             4    7     1       0.4903239879E-03       4    7    1         0.2563568164E-01      0.6135377860E-01
          0                 4           2             4    7     1       0.1399341143E-03       4    7    1         0.7328387083E-02      0.1685147276E-01
          0                 5           1             4    7     1       0.3990503426E-04       4    7    1         0.2090714119E-02      0.4729234268E-02

    ------------------------------------------------
       NWT REQUIRED            5 OUTER ITERATIONS 
       AND A TOTAL OF          9 INNER ITERATIONS.
    ------------------------------------------------

 NO OUTPUT CONTROL FOR STRESS PERIOD   16   TIME STEP   23
 
 SOLVING FOR HEAD 
                                                   Max.-Head-Change                         Max.-Flux-Residual
  Residual-Control   Outer-Iter.   Inner-Iter.     Column Row Layer    Maximum-Head-Change  Column Row Layer    Maximum-Flux-Residual          L2-NORM 
          0                 1           2             3    7     1       0.1335292140E-01       6    8    1         0.4639090954E+00      0.2082905746E+01
          0                 2           2             4    7     1       0.1719020969E-02       4    8    1         0.9088190007E-01      0.2907416258E+00
          0                 3           2             4    7     1       0.4909699338E-03       4    7    1         0.2567068599E-01      0.6135964747E-01
          0                 4           2             4    7     1       0.1401110606E-03       4    7    1         0.7337928598E-02      0.1685632562E-01
          0                 5           1             4    7     1       0.3995351841E-04       4    7    1         0.2093329715E-02      0.4730674463E-02

    ------------------------------------------------
       NWT REQUIRED            5 OUTER ITERATIONS 
       AND A TOTAL OF          9 INNER ITERATIONS.
    ------------------------------------------------

 NO OUTPUT CONTROL FOR STRESS PERIOD   16   TIME STEP   24
 
 SOLVING FOR HEAD 
                                                   Max.-Head-Change                         Max.-Flux-Residual
  Residual-Control   Outer-Iter.   Inner-Iter.     Column Row Layer    Maximum-Head-Change  Column Row Layer    Maximum-Flux-Residual          L2-NORM 
          0                 1           2             3    7     1       0.1327290597E-01       6    8    1         0.4617884802E+00      0.2076419451E+01
          0                 2           2             4    7     1       0.1721162503E-02       4    8    1         0.9085607377E-01      0.2902984491E+00
          0                 3           2             4    7     1       0.4915548287E-03       4    7    1         0.2570245758E-01      0.6136091878E-01
          0                 4           2             4    7     1       0.1402708375E-03       4    7    1         0.7346561461E-02      0.1685972318E-01
          0                 5           1             4    7     1       0.3999717429E-04       4    7    1         0.2095689750E-02      0.4731702279E-02

    ------------------------------------------------
       NWT REQUIRED            5 OUTER ITERATIONS 
       AND A TOTAL OF          9 INNER ITERATIONS.
    ------------------------------------------------

 NO OUTPUT CONTROL FOR STRESS PERIOD   16   TIME STEP   25
 
 SOLVING FOR HEAD 
                                                   Max.-Head-Change                         Max.-Flux-Residual
  Residual-Control   Outer-Iter.   Inner-Iter.     Column Row Layer    Maximum-Head-Change  Column Row Layer    Maximum-Flux-Residual          L2-NORM 
          0                 1           2             3    7     1       0.1319418201E-01       6    8    1         0.4597174405E+00      0.2070128478E+01
          0                 2           2             4    7     1       0.1723055801E-02       4    8    1         0.9082097942E-01      0.2898537301E+00
          0                 3           2             4    7     1       0.4920697792E-03       4    7    1         0.2573053024E-01      0.6135594905E-01
          0                 4           2             4    7     1       0.1404109022E-03       4    7    1         0.7354152767E-02      0.1686121404E-01
          0                 5           1             4    7     1       0.4003527446E-04       4    7    1         0.2097756224E-02      0.4732191288E-02

    ------------------------------------------------
       NWT REQUIRED            5 OUTER ITERATIONS 
       AND A TOTAL OF          9 INNER ITERATIONS.
    ------------------------------------------------

 NO OUTPUT CONTROL FOR STRESS PERIOD   16   TIME STEP   26
 
 SOLVING FOR HEAD 
                                                   Max.-Head-Change                         Max.-Flux-Residual
  Residual-Control   Outer-Iter.   Inner-Iter.     Column Row Layer    Maximum-Head-Change  Column Row Layer    Maximum-Flux-Residual          L2-NORM 
          0                 1           2             3    7     1       0.1311671382E-01       6    8    1         0.4576865253E+00      0.2064009365E+01
          0                 2           2             4    7     1       0.1724710388E-02       4    8    1         0.9078052149E-01      0.2894080261E+00
          0                 3           2             4    7     1       0.4925175818E-03       4    7    1         0.2575504722E-01      0.6134552389E-01
          0                 4           2             4    7     1       0.1405320811E-03       4    7    1         0.7360744665E-02      0.1686104690E-01
          0                 5           1             4    7     1       0.4006806326E-04       4    7    1         0.2099541574E-02      0.4732213015E-02

    ------------------------------------------------
       NWT REQUIRED            5 OUTER ITERATIONS 
       AND A TOTAL OF          9 INNER ITERATIONS.
    ------------------------------------------------

 NO OUTPUT CONTROL FOR STRESS PERIOD   16   TIME STEP   27
 
 SOLVING FOR HEAD 
                                                   Max.-Head-Change                         Max.-Flux-Residual
  Residual-Control   Outer-Iter.   Inner-Iter.     Column Row Layer    Maximum-Head-Change  Column Row Layer    Maximum-Flux-Residual          L2-NORM 
          0                 1           2             3    7     1       0.1304046372E-01       6    8    1         0.4557014250E+00      0.2058055562E+01
          0                 2           2             4    7     1       0.1726137102E-02       4    8    1         0.9073303927E-01      0.2889625896E+00
          0                 3           2             4    7     1       0.4929015600E-03       4    7    1         0.2577617397E-01      0.6133049201E-01
          0                 4           2             4    7     1       0.1406353801E-03       4    7    1         0.7366387650E-02      0.1685944633E-01
          0                 5           1             4    7     1       0.4009584235E-04       4    7    1         0.2101061074E-02      0.4731829057E-02

    ------------------------------------------------
       NWT REQUIRED            5 OUTER ITERATIONS 
       AND A TOTAL OF          9 INNER ITERATIONS.
    ------------------------------------------------

 NO OUTPUT CONTROL FOR STRESS PERIOD   16   TIME STEP   28
 
 SOLVING FOR HEAD 
                                                   Max.-Head-Change                         Max.-Flux-Residual
  Residual-Control   Outer-Iter.   Inner-Iter.     Column Row Layer    Maximum-Head-Change  Column Row Layer    Maximum-Flux-Residual          L2-NORM 
          0                 1           2             3    7     1       0.1296539730E-01       6    8    1         0.4537531203E+00      0.2052240862E+01
          0                 2           2             4    7     1       0.1727343464E-02       4    7    1         0.9069027963E-01      0.2885133824E+00
          0                 3           2             4    7     1       0.4932234517E-03       4    7    1         0.2579401723E-01      0.6130984876E-01
          0                 4           2             4    7     1       0.1407211831E-03       4    7    1         0.7371106128E-02      0.1685616040E-01
          0                 5           1             4    7     1       0.4011868961E-04       4    7    1         0.2102319983E-02      0.4730968689E-02

    ------------------------------------------------
       NWT REQUIRED            5 OUTER ITERATIONS 
       AND A TOTAL OF          9 INNER ITERATIONS.
    ------------------------------------------------

 NO OUTPUT CONTROL FOR STRESS PERIOD   16   TIME STEP   29
 
 SOLVING FOR HEAD 
                                                   Max.-Head-Change                         Max.-Flux-Residual
  Residual-Control   Outer-Iter.   Inner-Iter.     Column Row Layer    Maximum-Head-Change  Column Row Layer    Maximum-Flux-Residual          L2-NORM 
          0                 1           2             3    7     1       0.1289123908E-01       6    8    1         0.4462215790E+00      0.2030977989E+01
          0                 2           2             4    7     1       0.1728356535E-02       4    7    1         0.9074492314E-01      0.2869402764E+00
          0                 3           2             4    7     1       0.4934878516E-03       4    7    1         0.2580893709E-01      0.6125279883E-01
          0                 4           2             4    7     1       0.1407899693E-03       4    7    1         0.7374956835E-02      0.1684910823E-01
          0                 5           1             4    7     1       0.4013652241E-04       4    7    1         0.2103322357E-02      0.4729104558E-02

    ------------------------------------------------
       NWT REQUIRED            5 OUTER ITERATIONS 
       AND A TOTAL OF          9 INNER ITERATIONS.
    ------------------------------------------------

 NO OUTPUT CONTROL FOR STRESS PERIOD   16   TIME STEP   30



 STREAM LISTING     PERIOD     16   STEP       30

 LAYER ROW COL. STREAM  RCH.  FLOW INTO     FLOW TO   FLOW OUT OF   OVRLND.     DIRECT     STREAM       STREAM     STREAM     STREAM   STREAMBED  STREAMBED
                SEG.NO.  NO.  STRM. RCH.    AQUIFER    STRM. RCH.    RUNOFF     PRECIP       ET          HEAD       DEPTH      WIDTH   CONDCTNC.   GRADIENT

   1    1    1     1     1    3.3171E+01  2.7949E-01   3.2891E+01  0.000E+00  0.000E+00  0.000E+00  1.09432E+03  1.277E+00  1.452E+01  6.535E-02  1.426E+00
   1    2    2     1     2    3.2891E+01  4.3266E-01   3.2458E+01  0.000E+00  0.000E+00  0.000E+00  1.08933E+03  1.274E+00  1.446E+01  1.012E-01  1.425E+00
   1    3    3     1     3    3.2458E+01  3.6882E-01   3.2090E+01  0.000E+00  0.000E+00  0.000E+00  1.08369E+03  1.270E+00  1.439E+01  8.637E-02  1.423E+00
   1    3    4     1     4    3.2090E+01  3.3948E-01   3.1750E+01  0.000E+00  0.000E+00  0.000E+00  1.07868E+03  1.267E+00  1.433E+01  7.955E-02  1.422E+00
   1    4    5     2     1    2.9750E+01  3.3819E-01   2.9412E+01  0.000E+00  0.000E+00  0.000E+00  1.07327E+03  1.336E+00  1.200E+01  7.800E-02  1.445E+00
   1    5    6     2     2    2.9412E+01  2.5966E-01   2.9152E+01  0.000E+00  0.000E+00  0.000E+00  1.06784E+03  1.328E+00  1.200E+01  6.000E-02  1.443E+00
   1    6    6     2     3    2.9152E+01  2.5924E-01   2.8893E+01  0.000E+00  0.000E+00  0.000E+00  1.06311E+03  1.321E+00  1.200E+01  6.000E-02  1.440E+00
   1    7    6     2     4    2.8893E+01  2.5881E-01   2.8634E+01  0.000E+00  0.000E+00  0.000E+00  1.05839E+03  1.314E+00  1.200E+01  6.000E-02  1.438E+00
   1    8    6     2     5    2.8634E+01  2.5839E-01   2.8376E+01  0.000E+00  0.000E+00  0.000E+00  1.05367E+03  1.306E+00  1.200E+01  6.000E-02  1.435E+00
   1    3    5     3     1    2.0000E+00  2.8252E-01   1.7175E+00  0.000E+00  0.000E+00  0.000E+00  1.07555E+03  1.909E+00  9.636E+00  7.227E-02  1.955E+00
   1    3    6     3     2    1.7175E+00  2.4905E-01   1.4684E+00  0.000E+00  0.000E+00  0.000E+00  1.07264E+03  1.727E+00  8.909E+00  6.682E-02  1.864E+00
   1    3    7     3     3    1.4684E+00  1.9718E-01   1.2712E+00  0.000E+00  0.000E+00  0.000E+00  1.06987E+03  1.555E+00  8.218E+00  5.547E-02  1.777E+00
   1    4    8     3     4    1.2712E+00  2.2567E-01   1.0456E+00  0.000E+00  0.000E+00  0.000E+00  1.06682E+03  1.364E+00  7.455E+00  6.709E-02  1.682E+00
   1    5    8     3     5    1.0456E+00  1.5790E-01   8.8768E-01  0.000E+00  0.000E+00  0.000E+00  1.06362E+03  1.164E+00  6.655E+00  4.991E-02  1.582E+00
   1    6    8     3     6    8.8768E-01  5.5980E-02   8.3170E-01  0.000E+00  0.000E+00  0.000E+00  1.06158E+03  1.036E+00  6.145E+00  1.844E-02  1.518E+00
   1    5   10     4     1    1.0000E+01  9.0919E-02   9.9091E+00  0.000E+00  0.000E+00  0.000E+00  1.07836E+03  6.368E-01  1.000E+01  2.500E-02  1.212E+00
   1    5    9     4     2    9.9091E+00  1.8158E-01   9.7275E+00  0.000E+00  0.000E+00  0.000E+00  1.07154E+03  6.315E-01  1.000E+01  5.000E-02  1.211E+00
   1    6    8     4     3    9.7275E+00  1.2689E-01   9.6006E+00  0.000E+00  0.000E+00  0.000E+00  1.06381E+03  6.256E-01  1.000E+01  3.500E-02  1.209E+00
   1    6    8     5     1    1.0432E+01  2.2686E-01   1.0205E+01  0.000E+00  0.000E+00  0.000E+00  1.05868E+03  6.790E-01  1.542E+01  6.166E-02  1.226E+00
   1    7    7     5     2    1.0205E+01  2.7894E-01   9.9265E+00  0.000E+00  0.000E+00  0.000E+00  1.05417E+03  6.732E-01  1.519E+01  7.594E-02  1.224E+00
   1    8    7     5     3    9.9265E+00  1.9221E-01   9.7343E+00  0.000E+00  0.000E+00  0.000E+00  1.04992E+03  6.676E-01  1.497E+01  5.241E-02  1.223E+00
   1    8    6     5     4    9.7343E+00  1.3577E-01   9.5985E+00  0.000E+00  0.000E+00  0.000E+00  1.04691E+03  6.637E-01  1.482E+01  3.706E-02  1.221E+00
   1    9    6     6     1    3.7974E+01  2.7395E-01   3.7700E+01  0.000E+00  0.000E+00  0.000E+00  1.04429E+03  1.566E+00  1.200E+01  6.000E-02  1.522E+00
   1   10    7     6     2    3.7700E+01  2.7354E-01   3.7427E+01  0.000E+00  0.000E+00  0.000E+00  1.03974E+03  1.559E+00  1.200E+01  6.000E-02  1.520E+00
   1   11    7     6     3    3.7427E+01  2.7313E-01   3.7154E+01  0.000E+00  0.000E+00  0.000E+00  1.03519E+03  1.552E+00  1.200E+01  6.000E-02  1.517E+00
   1   12    7     6     4    3.7154E+01  2.7272E-01   3.6881E+01  0.000E+00  0.000E+00  0.000E+00  1.03064E+03  1.545E+00  1.200E+01  6.000E-02  1.515E+00
   1   13    7     6     5    3.6881E+01  2.1724E-02   3.6859E+01  0.000E+00  0.000E+00  0.000E+00  1.02745E+03  1.542E+00  1.200E+01  2.400E-02  3.017E-01
   1   14    9     7     1    1.5000E+02  1.3757E+00   1.4862E+02  0.000E+00  0.000E+00  0.000E+00  1.03987E+03  2.288E+00  5.529E+01  5.593E-01  8.199E-01
   1   13    8     7     2    1.4862E+02  1.9875E+00   1.4664E+02  0.000E+00  0.000E+00  0.000E+00  1.03478E+03  2.279E+00  5.525E+01  6.147E-01  1.078E+00
   1   13    7     7     3    1.4664E+02  1.7547E+00   1.4488E+02  0.000E+00  0.000E+00  0.000E+00  1.02969E+03  2.269E+00  5.521E+01  5.584E-01  1.047E+00
   1   13    6     8     1    1.8174E+02  1.2573E+00   1.8048E+02  0.000E+00  0.000E+00  0.000E+00  1.02490E+03  3.023E+00  4.384E+01  4.467E-01  9.382E-01
   1   13    5     8     2    1.8048E+02  4.6801E-01   1.8002E+02  0.000E+00  0.000E+00  0.000E+00  1.01864E+03  3.018E+00  4.376E+01  4.459E-01  3.499E-01
   1   13    4     8     3    1.8002E+02 -1.5515E+00   1.8157E+02  0.000E+00  0.000E+00  0.000E+00  1.01240E+03  3.021E+00  4.381E+01  4.464E+00 -1.159E-01
   1   13    3     8     4    1.8157E+02 -3.2275E+00   1.8480E+02  0.000E+00  0.000E+00  0.000E+00  1.00616E+03  3.036E+00  4.402E+01  4.486E+00 -2.398E-01
   1   13    2     8     5    1.8480E+02 -2.4744E+00   1.8727E+02  0.000E+00  0.000E+00  0.000E+00  9.99929E+02  3.054E+00  4.428E+01  4.512E+00 -1.828E-01
   1   13    1     8     6    1.8727E+02 -1.9181E+00   1.8919E+02  0.000E+00  0.000E+00  0.000E+00  9.94942E+02  3.067E+00  4.447E+01  2.719E+00 -2.351E-01
   1    8    6     9     1    0.0000E+00  0.0000E+00   0.0000E+00  0.000E+00  0.000E+00  0.000E+00  1.07875E+03  0.000E+00  4.000E+00  0.000E+00  1.000E+00
   1    8    5     9     2    0.0000E+00  0.0000E+00   0.0000E+00  0.000E+00  0.000E+00  0.000E+00  1.07825E+03  0.000E+00  4.000E+00  0.000E+00  1.000E+00





UNSATURATED ZONE PACKAGE VOLUMETRIC BUDGET FOR  TIME STEP    30 STRESS PERIOD   16
  ------------------------------------------------------------------------------



     CUMULATIVE VOLUMES      L**3       RATES FOR THIS TIME STEP      L**3/T
     ------------------                 ------------------------

           IN:                                      IN:
           ---                                      ---
        INFILTRATION =  3326533081.8873          INFILTRATION =           0.8475

          OUT:                                     OUT:
          ----                                     ----
              UZF ET =   436608662.9828                UZF ET =           0.7500
        UZF RECHARGE =  2489133546.1123          UZF RECHARGE =           7.2573

            IN - OUT =   400790872.7922              IN - OUT =          -7.1598

          STORAGE:                                 STORAGE:
          --------                                 --------
      STORAGE CHANGE =   400991452.8107        STORAGE CHANGE =          -7.1598

 PERCENT DISCREPANCY IS DIFFERENCE BETWEEN IN-OUT MINUS CHANGE IN STORAGE
 DIVIDED BY THE AVERAGE OF IN AND OUT TIMES 100

 PERCENT DISCREPANCY =          -0.00     PERCENT DISCREPANCY =           0.00






1
  VOLUMETRIC BUDGET FOR AGRICULTURAL FIELDS AT  END OF TIME STEP   30, STRESS PERIOD  16
  ------------------------------------------------------------------------------

     CUMULATIVE VOLUMES      L**3       RATES FOR THIS TIME STEP      L**3/T
     ------------------                 ------------------------

           IN:                                      IN:
           ---                                      ---
               AG WELLS  =  3104902144.0000                 AG WELLS  =           0.0000
      DIVERSION SEGMENTS =   188148784.0000        DIVERSION SEGMENTS =           0.0000
           GW IRRIGATION =           0.0000             GW IRRIGATION =           0.0000
           SW IRRIGATION =           0.0000             SW IRRIGATION =           0.0000
        SYSTEM LOSSES GW =           0.0000          SYSTEM LOSSES GW =           0.0000
        SYSTEM LOSSES SW =           0.0000          SYSTEM LOSSES SW =           0.0000

                TOTAL IN =  3293050880.0000                  TOTAL IN =           0.0000

          OUT:                                     OUT:
          ----                                     ----
               AG WELLS  =           0.0000                 AG WELLS  =           0.0000
      DIVERSION SEGMENTS =           0.0000        DIVERSION SEGMENTS =           0.0000
           GW IRRIGATION =  3104902144.0000             GW IRRIGATION =           0.0000
           SW IRRIGATION =   188152464.0000             SW IRRIGATION =           0.0000
        SYSTEM LOSSES GW =           0.0000          SYSTEM LOSSES GW =           0.0000
        SYSTEM LOSSES SW =           0.0000          SYSTEM LOSSES SW =           0.0000

               TOTAL OUT =  3293054720.0000                 TOTAL OUT =           0.0000

                IN - OUT =       -3840.0000                  IN - OUT =           0.0000

     PERCENT DISCREPANCY =          -0.00         PERCENT DISCREPANCY =           0.00



1
  VOLUMETRIC BUDGET FOR ENTIRE MODEL AT END OF TIME STEP   30, STRESS PERIOD  16
  ------------------------------------------------------------------------------

     CUMULATIVE VOLUMES      L**3       RATES FOR THIS TIME STEP      L**3/T
     ------------------                 ------------------------

           IN:                                      IN:
           ---                                      ---
             STORAGE     =  3347915520.0000               STORAGE     =           2.5342
       CONSTANT HEAD     =           0.0000         CONSTANT HEAD     =           0.0000
     HEAD DEP BOUNDS     =    11387179.0000       HEAD DEP BOUNDS     =           0.2885
      STREAM LEAKAGE     =   470065344.0000        STREAM LEAKAGE     =          13.1544
        UZF RECHARGE     =  2489131264.0000          UZF RECHARGE     =           7.2573
               GW ET     =           0.0000                 GW ET     =           0.0000
     SURFACE LEAKAGE     =           0.0000       SURFACE LEAKAGE     =           0.0000
           AG WELLS      =           0.0000             AG WELLS      =           0.0000

                TOTAL IN =  6318499328.0000                  TOTAL IN =          23.2344

          OUT:                                     OUT:
          ----                                     ----
             STORAGE     =  2810232064.0000               STORAGE     =          13.7690
       CONSTANT HEAD     =           0.0000         CONSTANT HEAD     =           0.0000
     HEAD DEP BOUNDS     =    11387627.0000       HEAD DEP BOUNDS     =           0.2906
      STREAM LEAKAGE     =   391921376.0000        STREAM LEAKAGE     =           9.1716
        UZF RECHARGE     =           0.0000          UZF RECHARGE     =           0.0000
               GW ET     =           0.0000                 GW ET     =           0.0000
     SURFACE LEAKAGE     =           0.0000       SURFACE LEAKAGE     =           0.0000
           AG WELLS      =  3104902144.0000             AG WELLS      =           0.0000

               TOTAL OUT =  6318443520.0000                 TOTAL OUT =          23.2311

                IN - OUT =       55808.0000                  IN - OUT =       3.2730E-03

     PERCENT DISCREPANCY =           0.00         PERCENT DISCREPANCY =           0.01






         TIME SUMMARY AT END OF TIME STEP   30 IN STRESS PERIOD   16
                    SECONDS     MINUTES      HOURS       DAYS        YEARS
                    -----------------------------------------------------------
   TIME STEP LENGTH  87667.      1461.1      24.352      1.0147     2.77799E-03
 STRESS PERIOD TIME 2.63000E+06  43833.      730.56      30.440     8.33397E-02
         TOTAL TIME 3.95364E+07 6.58940E+05  10982.      457.60      1.2528    
1
1
                            STRESS PERIOD NO.   17, LENGTH =   2630000.    
                            -----------------------------------------------

                              NUMBER OF TIME STEPS =    30

                               MULTIPLIER FOR DELT =     1.000

                            INITIAL TIME STEP SIZE =   87666.66    

 REUSING NON-PARAMETER GHB CELLS FROM LAST STRESS PERIOD

      2 GHB CELLS

 REUSING STREAM SEGMENT DATA FROM LAST STRESS PERIOD



            AREAL INFILTRATION RATE
 READING ON UNIT   19 WITH FORMAT: (FREE)              

            1           2           3           4           5           6           7           8           9          10
 ........................................................................................................................
   1   1.0000E-10  2.0000E-10   0.000       0.000       0.000       0.000       0.000       0.000       0.000       0.000    
   2   2.0000E-10  1.0000E-10  2.0000E-10   0.000       0.000      8.0000E-10  8.0000E-10  5.0000E-10   0.000       0.000    
   3    0.000      5.0000E-10  1.0000E-10  1.0000E-10  8.0000E-10  8.0000E-10  5.0000E-10  5.0000E-10   0.000       0.000    
   4   8.0000E-10  5.0000E-10  1.0000E-10  1.0000E-10  1.0000E-10  1.0000E-10  1.0000E-10  1.0000E-10  2.0000E-10   0.000    
   5   8.0000E-10  5.0000E-10  1.0000E-10  1.0000E-10  1.0000E-10  1.0000E-10  1.0000E-10  1.0000E-10  1.0000E-10  1.0000E-10
   6   8.0000E-10  5.0000E-10  5.0000E-10  2.0000E-10  2.0000E-10  1.0000E-10  1.0000E-10  1.0000E-10  1.0000E-10  5.0000E-10
   7   8.0000E-10  5.0000E-10  5.0000E-10  2.0000E-10  2.0000E-10  1.0000E-10  1.0000E-10  2.0000E-10  2.0000E-10   0.000    
   8    0.000      5.0000E-10  5.0000E-10  2.0000E-10  2.0000E-10  1.0000E-10  1.0000E-10  2.0000E-10  5.0000E-10   0.000    
   9    0.000      5.0000E-10  5.0000E-10  2.0000E-10  2.0000E-10  1.0000E-10  1.0000E-10  2.0000E-10  5.0000E-10   0.000    
  10    0.000      5.0000E-10  5.0000E-10  2.0000E-10  2.0000E-10  1.0000E-10  1.0000E-10  2.0000E-10  5.0000E-10  8.0000E-10
  11    0.000      1.0000E-10  1.0000E-10  1.0000E-10  1.0000E-10  1.0000E-10  1.0000E-10  2.0000E-10  5.0000E-10   0.000    
  12   1.0000E-10  1.0000E-10  1.0000E-10  1.0000E-10  1.0000E-10  1.0000E-10  1.0000E-10  1.0000E-10  2.0000E-10   0.000    
  13   1.0000E-10  1.0000E-10  2.0000E-10  2.0000E-10  2.0000E-10  2.0000E-10  2.0000E-10  1.0000E-10  1.0000E-10   0.000    
  14    0.000      2.0000E-10  5.0000E-10  5.0000E-10  5.0000E-10  5.0000E-10  5.0000E-10  2.0000E-10  1.0000E-10   0.000    
  15    0.000       0.000      8.0000E-10  8.0000E-10  8.0000E-10  8.0000E-10   0.000       0.000       0.000       0.000    

                  ET RATE =  2.500000E-08

 USING ET EXTINCTION DEPTH FROM PREVIOUS STRESS PERIOD. CURRENT PERIOD IS:      17

 USING EXTINCTION WATER CONTENT FROM PREVIOUS STRESS PERIOD. CURRENT PERIOD IS:      17

 USING AIR ENTRY PRESSURE FROM PREVIOUS STRESS PERIOD. CURRENT PERIOD IS:      17

 USING ROOT PRESSURE HEAD FROM PREVIOUS STRESS PERIOD. CURRENT PERIOD IS:      17

 USING ROOT ACTIVITY FROM PREVIOUS STRESS PERIOD. CURRENT PERIOD IS:      17

 PROCESSING AG STRESS PERIOD DATA

 READING AG STRESS PERIOD DATA

 READING IRRIGATION SEGMENT

 READING IRRIGATION WELL

 READING SUPPLEMENTAL WELL

 END PROCESSING AG STRESS PERIOD DATA OPTIONS
 
 SOLVING FOR HEAD 
                                                   Max.-Head-Change                         Max.-Flux-Residual
  Residual-Control   Outer-Iter.   Inner-Iter.     Column Row Layer    Maximum-Head-Change  Column Row Layer    Maximum-Flux-Residual          L2-NORM 
          0                 1           2             3    7     1       0.1281844637E-01       6    8    1         0.4361199400E+00      0.2019689288E+01
          0                 2           2             4    7     1      -0.1860246590E+01       5    8    1        -0.9992813910E+02      0.2447395648E+03
          0                 3           2             4    7     1       0.1051692382E+00       4    7    1         0.5804491952E+01      0.1405215448E+02
          0                 4           2             4    7     1      -0.4184855306E-02       4    7    1        -0.2374085650E+00      0.5786424244E+00
          0                 5           1             4   13     1      -0.5161011594E-04       4   13    1        -0.3122848500E-02      0.8814964891E-02

    ------------------------------------------------
       NWT REQUIRED            5 OUTER ITERATIONS 
       AND A TOTAL OF          9 INNER ITERATIONS.
    ------------------------------------------------

 NO OUTPUT CONTROL FOR STRESS PERIOD   17   TIME STEP    1
 
 SOLVING FOR HEAD 
                                                   Max.-Head-Change                         Max.-Flux-Residual
  Residual-Control   Outer-Iter.   Inner-Iter.     Column Row Layer    Maximum-Head-Change  Column Row Layer    Maximum-Flux-Residual          L2-NORM 
          0                 1           2             5    8     1       0.3944251536E-01       5    8    1         0.2183043724E+01      0.4558781591E+01
          0                 2           2             5    8     1      -0.3836662782E-02       5    8    1        -0.2183030687E+00      0.4558638555E+00
          0                 3           2             5    8     1       0.2612626956E-03       5    8    1         0.1528123393E-01      0.3190960116E-01
          0                 4           1             5    8     1      -0.1039588623E-04       5    8    1        -0.6250032895E-03      0.1305025745E-02

    ------------------------------------------------
       NWT REQUIRED            4 OUTER ITERATIONS 
       AND A TOTAL OF          7 INNER ITERATIONS.
    ------------------------------------------------

 NO OUTPUT CONTROL FOR STRESS PERIOD   17   TIME STEP    2
 
 SOLVING FOR HEAD 
                                                   Max.-Head-Change                         Max.-Flux-Residual
  Residual-Control   Outer-Iter.   Inner-Iter.     Column Row Layer    Maximum-Head-Change  Column Row Layer    Maximum-Flux-Residual          L2-NORM 
          0                 1           2             5    8     1       0.3706698790E-01       5    8    1         0.2049667554E+01      0.4305511866E+01
          0                 2           2             5    8     1      -0.3605591831E-02       5    8    1        -0.2049656740E+00      0.4305386999E+00
          0                 3           2             5    8     1       0.2455274566E-03       5    8    1         0.1434760623E-01      0.3013694752E-01
          0                 4           1             5    8     1      -0.9769894411E-05       5    8    1        -0.5868252974E-03      0.1232576283E-02

    ------------------------------------------------
       NWT REQUIRED            4 OUTER ITERATIONS 
       AND A TOTAL OF          7 INNER ITERATIONS.
    ------------------------------------------------

 NO OUTPUT CONTROL FOR STRESS PERIOD   17   TIME STEP    3
 
 SOLVING FOR HEAD 
                                                   Max.-Head-Change                         Max.-Flux-Residual
  Residual-Control   Outer-Iter.   Inner-Iter.     Column Row Layer    Maximum-Head-Change  Column Row Layer    Maximum-Flux-Residual          L2-NORM 
          0                 1           2             5    8     1       0.3486705733E-01       5    8    1         0.1926223994E+01      0.4070888007E+01
          0                 2           2             5    8     1      -0.3391601631E-02       5    8    1        -0.1926215291E+00      0.4070778637E+00
          0                 3           2             5    8     1       0.2309556210E-03       5    8    1         0.1348352128E-01      0.2849481190E-01
          0                 4           1             5    8     1      -0.9189939470E-05       5    8    1        -0.5514767420E-03      0.1165396374E-02

    ------------------------------------------------
       NWT REQUIRED            4 OUTER ITERATIONS 
       AND A TOTAL OF          7 INNER ITERATIONS.
    ------------------------------------------------

 NO OUTPUT CONTROL FOR STRESS PERIOD   17   TIME STEP    4
 
 SOLVING FOR HEAD 
                                                   Max.-Head-Change                         Max.-Flux-Residual
  Residual-Control   Outer-Iter.   Inner-Iter.     Column Row Layer    Maximum-Head-Change  Column Row Layer    Maximum-Flux-Residual          L2-NORM 
          0                 1           2             5    8     1       0.3282844569E-01       5    8    1         0.1811900657E+01      0.3853398173E+01
          0                 2           2             5    8     1      -0.3193302616E-02       5    8    1        -0.1811893579E+00      0.3853302604E+00
          0                 3           2             5    8     1       0.2174521703E-03       5    8    1         0.1268326738E-01      0.2697252540E-01
          0                 4           1             5    8     1      -0.8652624913E-05       5    8    1        -0.5187463314E-03      0.1103121633E-02

    ------------------------------------------------
       NWT REQUIRED            4 OUTER ITERATIONS 
       AND A TOTAL OF          7 INNER ITERATIONS.
    ------------------------------------------------

 NO OUTPUT CONTROL FOR STRESS PERIOD   17   TIME STEP    5
 
 SOLVING FOR HEAD 
                                                   Max.-Head-Change                         Max.-Flux-Residual
  Residual-Control   Outer-Iter.   Inner-Iter.     Column Row Layer    Maximum-Head-Change  Column Row Layer    Maximum-Flux-Residual          L2-NORM 
          0                 1           2             5    8     1       0.3093828452E-01       5    8    1         0.1705965080E+01      0.3651658014E+01
          0                 2           2             5    8     1      -0.3009443054E-02       5    8    1        -0.1705959163E+00      0.3651573609E+00
          0                 3           2             5    8     1       0.2049319972E-03       5    8    1         0.1194172490E-01      0.2556050519E-01
          0                 4           1             5    8     1      -0.8154435206E-05       5    8    1        -0.4884171904E-03      0.1045390169E-02

    ------------------------------------------------
       NWT REQUIRED            4 OUTER ITERATIONS 
       AND A TOTAL OF          7 INNER ITERATIONS.
    ------------------------------------------------

 NO OUTPUT CONTROL FOR STRESS PERIOD   17   TIME STEP    6
 
 SOLVING FOR HEAD 
                                                   Max.-Head-Change                         Max.-Flux-Residual
  Residual-Control   Outer-Iter.   Inner-Iter.     Column Row Layer    Maximum-Head-Change  Column Row Layer    Maximum-Flux-Residual          L2-NORM 
          0                 1           2             5    8     1       0.2918469775E-01       5    8    1         0.1607742209E+01      0.3464429844E+01
          0                 2           2             5    6     1      -0.2810949747E-02       5    8    1        -0.1588930021E+00      0.3451980663E+00
          0                 3           2             5    6     1       0.1914152894E-03       5    8    1         0.1112248822E-01      0.2416338465E-01
          0                 4           1             5    6     1      -0.7616584500E-05       5    8    1        -0.4549105290E-03      0.9882786456E-03

    ------------------------------------------------
       NWT REQUIRED            4 OUTER ITERATIONS 
       AND A TOTAL OF          7 INNER ITERATIONS.
    ------------------------------------------------

 NO OUTPUT CONTROL FOR STRESS PERIOD   17   TIME STEP    7
 
 SOLVING FOR HEAD 
                                                   Max.-Head-Change                         Max.-Flux-Residual
  Residual-Control   Outer-Iter.   Inner-Iter.     Column Row Layer    Maximum-Head-Change  Column Row Layer    Maximum-Flux-Residual          L2-NORM 
          0                 1           2             5    8     1       0.2762167878E-01       5    8    1         0.1518149675E+01      0.3291588780E+01
          0                 2           2             5    8     1      -0.2686873360E-02       5    8    1        -0.1518175814E+00      0.3291544551E+00
          0                 3           2             5    8     1       0.1829657541E-03       5    8    1         0.1062721073E-01      0.2304043058E-01
          0                 4           1             5    8     1      -0.7280380016E-05       5    8    1        -0.4346536323E-03      0.9423736595E-03

    ------------------------------------------------
       NWT REQUIRED            4 OUTER ITERATIONS 
       AND A TOTAL OF          7 INNER ITERATIONS.
    ------------------------------------------------

 NO OUTPUT CONTROL FOR STRESS PERIOD   17   TIME STEP    8
 
 SOLVING FOR HEAD 
                                                   Max.-Head-Change                         Max.-Flux-Residual
  Residual-Control   Outer-Iter.   Inner-Iter.     Column Row Layer    Maximum-Head-Change  Column Row Layer    Maximum-Flux-Residual          L2-NORM 
          0                 1           2             5    8     1       0.2613994554E-01       5    8    1         0.1435392372E+01      0.3131248616E+01
          0                 2           2             5    8     1      -0.2542736668E-02       5    8    1        -0.1435415426E+00      0.3131209664E+00
          0                 3           2             5    8     1       0.1731506201E-03       5    8    1         0.1004789050E-01      0.2191811619E-01
          0                 4           1             5    8     1      -0.6889826901E-05       5    8    1        -0.4109593974E-03      0.8964442362E-03

    ------------------------------------------------
       NWT REQUIRED            4 OUTER ITERATIONS 
       AND A TOTAL OF          7 INNER ITERATIONS.
    ------------------------------------------------

 NO OUTPUT CONTROL FOR STRESS PERIOD   17   TIME STEP    9
 
 SOLVING FOR HEAD 
                                                   Max.-Head-Change                         Max.-Flux-Residual
  Residual-Control   Outer-Iter.   Inner-Iter.     Column Row Layer    Maximum-Head-Change  Column Row Layer    Maximum-Flux-Residual          L2-NORM 
          0                 1           2             5    8     1       0.2476039239E-01       5    8    1         0.1358385623E+01      0.2982120520E+01
          0                 2           2             4    7     1      -0.1863389001E+01       5    8    1        -0.1001358406E+03      0.2451609854E+03
          0                 3           2             4    7     1       0.1268707952E+00       5    8    1         0.7106221815E+01      0.1721414978E+02
          0                 4           2             4    7     1      -0.5048400844E-02       5    8    1        -0.2905650860E+00      0.7072446563E+00
          0                 5           1             4    7     1       0.6224881692E-04       5    8    1         0.3676568950E-02      0.1024440138E-01

    ------------------------------------------------
       NWT REQUIRED            5 OUTER ITERATIONS 
       AND A TOTAL OF          9 INNER ITERATIONS.
    ------------------------------------------------

 NO OUTPUT CONTROL FOR STRESS PERIOD   17   TIME STEP   10
 
 SOLVING FOR HEAD 
                                                   Max.-Head-Change                         Max.-Flux-Residual
  Residual-Control   Outer-Iter.   Inner-Iter.     Column Row Layer    Maximum-Head-Change  Column Row Layer    Maximum-Flux-Residual          L2-NORM 
          0                 1           2             5    8     1       0.7710702657E-01       5    8    1         0.4247266058E+01      0.8953834245E+01
          0                 2           2             5    8     1      -0.7500329191E-02       5    8    1        -0.4247209270E+00      0.8953587969E+00
          0                 3           2             5    8     1       0.5107454161E-03       5    8    1         0.2973053163E-01      0.6267537246E-01
          0                 4           1             5    8     1      -0.2032303401E-04       5    8    1        -0.1215980174E-02      0.2563426131E-02

    ------------------------------------------------
       NWT REQUIRED            4 OUTER ITERATIONS 
       AND A TOTAL OF          7 INNER ITERATIONS.
    ------------------------------------------------

 NO OUTPUT CONTROL FOR STRESS PERIOD   17   TIME STEP   11
 
 SOLVING FOR HEAD 
                                                   Max.-Head-Change                         Max.-Flux-Residual
  Residual-Control   Outer-Iter.   Inner-Iter.     Column Row Layer    Maximum-Head-Change  Column Row Layer    Maximum-Flux-Residual          L2-NORM 
          0                 1           2             5    8     1       0.7281115757E-01       5    8    1         0.4006925147E+01      0.8511914661E+01
          0                 2           2             5    8     1      -0.7082468889E-02       5    8    1        -0.4006875824E+00      0.8509248434E+00
          0                 3           2             5    8     1       0.4822905719E-03       5    8    1         0.2804818955E-01      0.5956496500E-01
          0                 4           1             5    8     1      -0.1919078998E-04       5    8    1        -0.1147172336E-02      0.2436209089E-02

    ------------------------------------------------
       NWT REQUIRED            4 OUTER ITERATIONS 
       AND A TOTAL OF          7 INNER ITERATIONS.
    ------------------------------------------------

 NO OUTPUT CONTROL FOR STRESS PERIOD   17   TIME STEP   12
 
 SOLVING FOR HEAD 
                                                   Max.-Head-Change                         Max.-Flux-Residual
  Residual-Control   Outer-Iter.   Inner-Iter.     Column Row Layer    Maximum-Head-Change  Column Row Layer    Maximum-Flux-Residual          L2-NORM 
          0                 1           2             5    8     1       0.6881825543E-01       5    8    1         0.3783680248E+01      0.8100625713E+01
          0                 2           2             5    8     1      -0.6694078005E-02       5    8    1        -0.3783637591E+00      0.8100433150E+00
          0                 3           2             5    8     1       0.4558425015E-03       5    8    1         0.2648551509E-01      0.5670323458E-01
          0                 4           1             5    8     1      -0.1813839707E-04       5    8    1        -0.1083258888E-02      0.2319166015E-02

    ------------------------------------------------
       NWT REQUIRED            4 OUTER ITERATIONS 
       AND A TOTAL OF          7 INNER ITERATIONS.
    ------------------------------------------------

 NO OUTPUT CONTROL FOR STRESS PERIOD   17   TIME STEP   13
 
 SOLVING FOR HEAD 
                                                   Max.-Head-Change                         Max.-Flux-Residual
  Residual-Control   Outer-Iter.   Inner-Iter.     Column Row Layer    Maximum-Head-Change  Column Row Layer    Maximum-Flux-Residual          L2-NORM 
          0                 1           2             5    8     1       0.6510472465E-01       5    8    1         0.3576190727E+01      0.7717356377E+01
          0                 2           2             5    8     1      -0.6332860619E-02       5    8    1        -0.3576153575E+00      0.7717184982E+00
          0                 3           2             5    8     1       0.4312448598E-03       5    8    1         0.2503312116E-01      0.5402047723E-01
          0                 4           1             5    8     1      -0.1715963425E-04       5    8    1        -0.1023855921E-02      0.2209437771E-02

    ------------------------------------------------
       NWT REQUIRED            4 OUTER ITERATIONS 
       AND A TOTAL OF          7 INNER ITERATIONS.
    ------------------------------------------------

 NO OUTPUT CONTROL FOR STRESS PERIOD   17   TIME STEP   14
 
 SOLVING FOR HEAD 
                                                   Max.-Head-Change                         Max.-Flux-Residual
  Residual-Control   Outer-Iter.   Inner-Iter.     Column Row Layer    Maximum-Head-Change  Column Row Layer    Maximum-Flux-Residual          L2-NORM 
          0                 1           2             5    8     1       0.6164875297E-01       5    8    1         0.3383217565E+01      0.7359843612E+01
          0                 2           2             5    8     1      -0.5996695213E-02       5    8    1        -0.3383184916E+00      0.7359690624E+00
          0                 3           2             5    8     1       0.4083531761E-03       5    8    1         0.2368233553E-01      0.5151799540E-01
          0                 4           1             5    8     1      -0.1624875285E-04       5    8    1        -0.9686087308E-03      0.2107088623E-02

    ------------------------------------------------
       NWT REQUIRED            4 OUTER ITERATIONS 
       AND A TOTAL OF          7 INNER ITERATIONS.
    ------------------------------------------------

 NO OUTPUT CONTROL FOR STRESS PERIOD   17   TIME STEP   15
 
 SOLVING FOR HEAD 
                                                   Max.-Head-Change                         Max.-Flux-Residual
  Residual-Control   Outer-Iter.   Inner-Iter.     Column Row Layer    Maximum-Head-Change  Column Row Layer    Maximum-Flux-Residual          L2-NORM 
          0                 1           2             5    8     1       0.5843025542E-01       5    8    1         0.3203622011E+01      0.7026086714E+01
          0                 2           2             5    8     1      -0.5683629255E-02       5    8    1        -0.3203593545E+00      0.7025950741E+00
          0                 3           2             5    8     1       0.3870344887E-03       5    8    1         0.2242519161E-01      0.4918180054E-01
          0                 4           1             5    8     1      -0.1540046264E-04       5    8    1        -0.9171914890E-03      0.2011537549E-02

    ------------------------------------------------
       NWT REQUIRED            4 OUTER ITERATIONS 
       AND A TOTAL OF          7 INNER ITERATIONS.
    ------------------------------------------------

 NO OUTPUT CONTROL FOR STRESS PERIOD   17   TIME STEP   16
 
 SOLVING FOR HEAD 
                                                   Max.-Head-Change                         Max.-Flux-Residual
  Residual-Control   Outer-Iter.   Inner-Iter.     Column Row Layer    Maximum-Head-Change  Column Row Layer    Maximum-Flux-Residual          L2-NORM 
          0                 1           2             5    8     1       0.5543103269E-01       5    8    1         0.3036370498E+01      0.6714245133E+01
          0                 2           2             5    8     1      -0.5391891602E-02       5    8    1        -0.3036345456E+00      0.6714123983E+00
          0                 3           2             5    8     1       0.3671681875E-03       5    8    1         0.2125445124E-01      0.4699899927E-01
          0                 4           1             5    8     1      -0.1460996407E-04       5    8    1        -0.8693081434E-03      0.1922261697E-02

    ------------------------------------------------
       NWT REQUIRED            4 OUTER ITERATIONS 
       AND A TOTAL OF          7 INNER ITERATIONS.
    ------------------------------------------------

 NO OUTPUT CONTROL FOR STRESS PERIOD   17   TIME STEP   17
 
 SOLVING FOR HEAD 
                                                   Max.-Head-Change                         Max.-Flux-Residual
  Residual-Control   Outer-Iter.   Inner-Iter.     Column Row Layer    Maximum-Head-Change  Column Row Layer    Maximum-Flux-Residual          L2-NORM 
          0                 1           2             5    8     1       0.5263442834E-01       5    8    1         0.2880519418E+01      0.6422658492E+01
          0                 2           2             5    8     1      -0.5119862163E-02       5    8    1        -0.2880497129E+00      0.6422550179E+00
          0                 3           2             5    8     1       0.3486439498E-03       5    8    1         0.2016350969E-01      0.4495796827E-01
          0                 4           1             5    8     1      -0.1387286767E-04       5    8    1        -0.8246885961E-03      0.1838782800E-02

    ------------------------------------------------
       NWT REQUIRED            4 OUTER ITERATIONS 
       AND A TOTAL OF          7 INNER ITERATIONS.
    ------------------------------------------------

 NO OUTPUT CONTROL FOR STRESS PERIOD   17   TIME STEP   18
 
 SOLVING FOR HEAD 
                                                   Max.-Head-Change                         Max.-Flux-Residual
  Residual-Control   Outer-Iter.   Inner-Iter.     Column Row Layer    Maximum-Head-Change  Column Row Layer    Maximum-Flux-Residual          L2-NORM 
          0                 1           2             5    8     1       0.5002492738E-01       5    8    1         0.2735189523E+01      0.6149788671E+01
          0                 2           2             4    7     1      -0.1865169234E+01       5    8    1        -0.1002735170E+03      0.2454549279E+03
          0                 3           2             4    7     1       0.1269917554E+00       5    8    1         0.7016900068E+01      0.1719494509E+02
          0                 4           2             4    7     1      -0.5053213894E-02       5    6    1        -0.2868821832E+00      0.7044779843E+00
          0                 5           1             4    7     1       0.6230816484E-04       4    7    1         0.3630621471E-02      0.9163941576E-02

    ------------------------------------------------
       NWT REQUIRED            5 OUTER ITERATIONS 
       AND A TOTAL OF          9 INNER ITERATIONS.
    ------------------------------------------------

 NO OUTPUT CONTROL FOR STRESS PERIOD   17   TIME STEP   19
 
 SOLVING FOR HEAD 
                                                   Max.-Head-Change                         Max.-Flux-Residual
  Residual-Control   Outer-Iter.   Inner-Iter.     Column Row Layer    Maximum-Head-Change  Column Row Layer    Maximum-Flux-Residual          L2-NORM 
          0                 1           2             5    8     1       0.1013744550E+00       5    8    1         0.5567058490E+01      0.1206495681E+02
          0                 2           2             5    8     1      -0.9860825283E-02       5    8    1        -0.5566958051E+00      0.1206451075E+01
          0                 3           2             5    8     1       0.6714870650E-03       5    8    1         0.3896881839E-01      0.8445188185E-01
          0                 4           1             5    8     1      -0.2671909245E-04       5    8    1        -0.1593826453E-02      0.3454077167E-02

    ------------------------------------------------
       NWT REQUIRED            4 OUTER ITERATIONS 
       AND A TOTAL OF          7 INNER ITERATIONS.
    ------------------------------------------------

 NO OUTPUT CONTROL FOR STRESS PERIOD   17   TIME STEP   20
 
 SOLVING FOR HEAD 
                                                   Max.-Head-Change                         Max.-Flux-Residual
  Residual-Control   Outer-Iter.   Inner-Iter.     Column Row Layer    Maximum-Head-Change  Column Row Layer    Maximum-Flux-Residual          L2-NORM 
          0                 1           2             5    8     1       0.9601723393E-01       5    8    1         0.5267966982E+01      0.1152064542E+02
          0                 2           2             5    8     1      -0.9339730367E-02       5    8    1        -0.5267878184E+00      0.1152024712E+01
          0                 3           2             5    8     1       0.6360022088E-03       5    8    1         0.3687524392E-01      0.8064200774E-01
          0                 4           1             5    8     1      -0.2530718724E-04       5    8    1        -0.1508203256E-02      0.3298262832E-02

    ------------------------------------------------
       NWT REQUIRED            4 OUTER ITERATIONS 
       AND A TOTAL OF          7 INNER ITERATIONS.
    ------------------------------------------------

 NO OUTPUT CONTROL FOR STRESS PERIOD   17   TIME STEP   21
 
 SOLVING FOR HEAD 
                                                   Max.-Head-Change                         Max.-Flux-Residual
  Residual-Control   Outer-Iter.   Inner-Iter.     Column Row Layer    Maximum-Head-Change  Column Row Layer    Maximum-Flux-Residual          L2-NORM 
          0                 1           2             5    8     1       0.9102744180E-01       5    8    1         0.4989576773E+01      0.1101235111E+02
          0                 2           2             5    8     1      -0.8854374427E-02       5    8    1        -0.4989498236E+00      0.1101199577E+01
          0                 3           2             5    8     1       0.6029511862E-03       5    8    1         0.3492657723E-01      0.7708422165E-01
          0                 4           1             5    8     1      -0.2399198692E-04       5    8    1        -0.1428498659E-02      0.3152730086E-02

    ------------------------------------------------
       NWT REQUIRED            4 OUTER ITERATIONS 
       AND A TOTAL OF          7 INNER ITERATIONS.
    ------------------------------------------------

 NO OUTPUT CONTROL FOR STRESS PERIOD   17   TIME STEP   22
 
 SOLVING FOR HEAD 
                                                   Max.-Head-Change                         Max.-Flux-Residual
  Residual-Control   Outer-Iter.   Inner-Iter.     Column Row Layer    Maximum-Head-Change  Column Row Layer    Maximum-Flux-Residual          L2-NORM 
          0                 1           2             5    8     1       0.8637680582E-01       5    8    1         0.4730284044E+01      0.1053724109E+02
          0                 2           2             5    8     1      -0.8402006855E-02       5    8    1        -0.4730214207E+00      0.1053692392E+01
          0                 3           2             5    8     1       0.5721465091E-03       5    8    1         0.3311157999E-01      0.7375869774E-01
          0                 4           1             5    8     1      -0.2276624074E-04       5    8    1        -0.1354265209E-02      0.3016728901E-02

    ------------------------------------------------
       NWT REQUIRED            4 OUTER ITERATIONS 
       AND A TOTAL OF          7 INNER ITERATIONS.
    ------------------------------------------------

 NO OUTPUT CONTROL FOR STRESS PERIOD   17   TIME STEP   23
 
 SOLVING FOR HEAD 
                                                   Max.-Head-Change                         Max.-Flux-Residual
  Residual-Control   Outer-Iter.   Inner-Iter.     Column Row Layer    Maximum-Head-Change  Column Row Layer    Maximum-Flux-Residual          L2-NORM 
          0                 1           2             5    8     1       0.8203935170E-01       5    8    1         0.4488615102E+01      0.1009275027E+02
          0                 2           2             5    8     1      -0.7980101308E-02       5    8    1        -0.4488552591E+00      0.1009246655E+01
          0                 3           2             5    8     1       0.5434161996E-03       5    8    1         0.3141994084E-01      0.7064747068E-01
          0                 4           1             5    8     1      -0.2162303507E-04       5    8    1        -0.1285077090E-02      0.2889477064E-02

    ------------------------------------------------
       NWT REQUIRED            4 OUTER ITERATIONS 
       AND A TOTAL OF          7 INNER ITERATIONS.
    ------------------------------------------------

 NO OUTPUT CONTROL FOR STRESS PERIOD   17   TIME STEP   24
 
 SOLVING FOR HEAD 
                                                   Max.-Head-Change                         Max.-Flux-Residual
  Residual-Control   Outer-Iter.   Inner-Iter.     Column Row Layer    Maximum-Head-Change  Column Row Layer    Maximum-Flux-Residual          L2-NORM 
          0                 1           2             5    8     1       0.7799102997E-01       5    8    1         0.4263207632E+01      0.9676520067E+01
          0                 2           2             5    8     1      -0.7586319695E-02       5    8    1        -0.4263151809E+00      0.9676267031E+00
          0                 3           2             5    8     1       0.5166010403E-03       5    8    1         0.2984212855E-01      0.6773405648E-01
          0                 4           1             5    8     1      -0.2055603535E-04       5    8    1        -0.1220544504E-02      0.2770320434E-02

    ------------------------------------------------
       NWT REQUIRED            4 OUTER ITERATIONS 
       AND A TOTAL OF          7 INNER ITERATIONS.
    ------------------------------------------------

 NO OUTPUT CONTROL FOR STRESS PERIOD   17   TIME STEP   25
 
 SOLVING FOR HEAD 
                                                   Max.-Head-Change                         Max.-Flux-Residual
  Residual-Control   Outer-Iter.   Inner-Iter.     Column Row Layer    Maximum-Head-Change  Column Row Layer    Maximum-Flux-Residual          L2-NORM 
          0                 1           2             5    8     1       0.7421038750E-01       5    8    1         0.4052845893E+01      0.9286409662E+01
          0                 2           2             5    8     1      -0.7218574422E-02       5    8    1        -0.4052795721E+00      0.9286183601E+00
          0                 3           2             5    8     1       0.4915588713E-03       5    8    1         0.2836962996E-01      0.6500345567E-01
          0                 4           1             5    8     1      -0.1955958444E-04       5    8    1        -0.1160319267E-02      0.2658641809E-02

    ------------------------------------------------
       NWT REQUIRED            4 OUTER ITERATIONS 
       AND A TOTAL OF          7 INNER ITERATIONS.
    ------------------------------------------------

 NO OUTPUT CONTROL FOR STRESS PERIOD   17   TIME STEP   26
 
 SOLVING FOR HEAD 
                                                   Max.-Head-Change                         Max.-Flux-Residual
  Residual-Control   Outer-Iter.   Inner-Iter.     Column Row Layer    Maximum-Head-Change  Column Row Layer    Maximum-Flux-Residual          L2-NORM 
          0                 1           2             5    8     1       0.7067709128E-01       5    8    1         0.3856378591E+01      0.8920442028E+01
          0                 2           2             5    8     1      -0.6874887825E-02       5    8    1        -0.3856333162E+00      0.8920239761E+00
          0                 3           2             5    8     1       0.4681550184E-03       5    8    1         0.2699438679E-01      0.6244182782E-01
          0                 4           1             5    8     1      -0.1862832315E-04       5    8    1        -0.1104071750E-02      0.2553868819E-02

    ------------------------------------------------
       NWT REQUIRED            4 OUTER ITERATIONS 
       AND A TOTAL OF          7 INNER ITERATIONS.
    ------------------------------------------------

 NO OUTPUT CONTROL FOR STRESS PERIOD   17   TIME STEP   27
 
 SOLVING FOR HEAD 
                                                   Max.-Head-Change                         Max.-Flux-Residual
  Residual-Control   Outer-Iter.   Inner-Iter.     Column Row Layer    Maximum-Head-Change  Column Row Layer    Maximum-Flux-Residual          L2-NORM 
          0                 1           2             5    8     1       0.6737292001E-01       5    8    1         0.3672774882E+01      0.8576830888E+01
          0                 2           2             4    7     1      -0.1866919213E+01       5    8    1        -0.1003672734E+03      0.2456842021E+03
          0                 3           2             4    7     1       0.1271109099E+00       5    8    1         0.7023491099E+01      0.1721100928E+02
          0                 4           2             4    7     1      -0.5057955183E-02       5    6    1        -0.2871553920E+00      0.7051305067E+00
          0                 5           1             4    7     1       0.6236662684E-04       4    8    1         0.3634035388E-02      0.9170793118E-02

    ------------------------------------------------
       NWT REQUIRED            5 OUTER ITERATIONS 
       AND A TOTAL OF          9 INNER ITERATIONS.
    ------------------------------------------------

 NO OUTPUT CONTROL FOR STRESS PERIOD   17   TIME STEP   28
 
 SOLVING FOR HEAD 
                                                   Max.-Head-Change                         Max.-Flux-Residual
  Residual-Control   Outer-Iter.   Inner-Iter.     Column Row Layer    Maximum-Head-Change  Column Row Layer    Maximum-Flux-Residual          L2-NORM 
          0                 1           2             5    8     1       0.1180604898E+00       5    8    1         0.6468145402E+01      0.1435074010E+02
          0                 2           2             5    8     1      -0.1148386853E-01       5    8    1        -0.6468008257E+00      0.1435013988E+01
          0                 3           2             5    8     1       0.7820108106E-03       5    8    1         0.4527620727E-01      0.1004513603E+00
          0                 4           1             5    8     1      -0.3111693316E-04       5    8    1        -0.1851798864E-02      0.4108450469E-02

    ------------------------------------------------
       NWT REQUIRED            4 OUTER ITERATIONS 
       AND A TOTAL OF          7 INNER ITERATIONS.
    ------------------------------------------------

 NO OUTPUT CONTROL FOR STRESS PERIOD   17   TIME STEP   29
 
 SOLVING FOR HEAD 
                                                   Max.-Head-Change                         Max.-Flux-Residual
  Residual-Control   Outer-Iter.   Inner-Iter.     Column Row Layer    Maximum-Head-Change  Column Row Layer    Maximum-Flux-Residual          L2-NORM 
          0                 1           2             5    8     1       0.1120832905E+00       5    8    1         0.6135038285E+01      0.1375112103E+02
          0                 2           2             5    8     1      -0.1090247006E-01       5    8    1        -0.6134915159E+00      0.1375060321E+01
          0                 3           2             5    8     1       0.7424194725E-03       5    8    1         0.4294453783E-01      0.9625472856E-01
          0                 4           1             5    8     1      -0.2954175549E-04       5    8    1        -0.1756445007E-02      0.3936844759E-02

    ------------------------------------------------
       NWT REQUIRED            4 OUTER ITERATIONS 
       AND A TOTAL OF          7 INNER ITERATIONS.
    ------------------------------------------------

 NO OUTPUT CONTROL FOR STRESS PERIOD   17   TIME STEP   30



 STREAM LISTING     PERIOD     17   STEP       30

 LAYER ROW COL. STREAM  RCH.  FLOW INTO     FLOW TO   FLOW OUT OF   OVRLND.     DIRECT     STREAM       STREAM     STREAM     STREAM   STREAMBED  STREAMBED
                SEG.NO.  NO.  STRM. RCH.    AQUIFER    STRM. RCH.    RUNOFF     PRECIP       ET          HEAD       DEPTH      WIDTH   CONDCTNC.   GRADIENT

   1    1    1     1     1    2.4716E+01  2.4383E-01   2.4472E+01  0.000E+00  0.000E+00  0.000E+00  1.09422E+03  1.174E+00  1.298E+01  5.842E-02  1.391E+00
   1    2    2     1     2    2.4472E+01  3.7705E-01   2.4095E+01  0.000E+00  0.000E+00  0.000E+00  1.08923E+03  1.169E+00  1.292E+01  9.043E-02  1.390E+00
   1    3    3     1     3    2.4095E+01  3.2100E-01   2.3774E+01  0.000E+00  0.000E+00  0.000E+00  1.08358E+03  1.164E+00  1.285E+01  7.709E-02  1.388E+00
   1    3    4     1     4    2.3774E+01  2.9513E-01   2.3479E+01  0.000E+00  0.000E+00  0.000E+00  1.07857E+03  1.159E+00  1.278E+01  7.096E-02  1.386E+00
   1    4    5     2     1    2.1479E+01  3.1960E-01   2.1159E+01  0.000E+00  0.000E+00  0.000E+00  1.07303E+03  1.097E+00  1.200E+01  7.800E-02  1.366E+00
   1    5    6     2     2    2.1159E+01  2.4532E-01   2.0914E+01  0.000E+00  0.000E+00  0.000E+00  1.06760E+03  1.089E+00  1.200E+01  6.000E-02  1.363E+00
   1    6    6     2     3    2.0914E+01  2.4487E-01   2.0669E+01  0.000E+00  0.000E+00  0.000E+00  1.06287E+03  1.081E+00  1.200E+01  6.000E-02  1.360E+00
   1    7    6     2     4    2.0669E+01  2.4441E-01   2.0424E+01  0.000E+00  0.000E+00  0.000E+00  1.05815E+03  1.073E+00  1.200E+01  6.000E-02  1.358E+00
   1    8    6     2     5    2.0424E+01  2.4395E-01   2.0180E+01  0.000E+00  0.000E+00  0.000E+00  1.05342E+03  1.066E+00  1.200E+01  6.000E-02  1.355E+00
   1    3    5     3     1    2.0000E+00  2.8252E-01   1.7175E+00  0.000E+00  0.000E+00  0.000E+00  1.07555E+03  1.909E+00  9.636E+00  7.227E-02  1.955E+00
   1    3    6     3     2    1.7175E+00  2.4905E-01   1.4684E+00  0.000E+00  0.000E+00  0.000E+00  1.07264E+03  1.727E+00  8.909E+00  6.682E-02  1.864E+00
   1    3    7     3     3    1.4684E+00  1.9718E-01   1.2712E+00  0.000E+00  0.000E+00  0.000E+00  1.06987E+03  1.555E+00  8.218E+00  5.547E-02  1.777E+00
   1    4    8     3     4    1.2712E+00  2.2567E-01   1.0456E+00  0.000E+00  0.000E+00  0.000E+00  1.06682E+03  1.364E+00  7.455E+00  6.709E-02  1.682E+00
   1    5    8     3     5    1.0456E+00  1.5790E-01   8.8768E-01  0.000E+00  0.000E+00  0.000E+00  1.06362E+03  1.164E+00  6.655E+00  4.991E-02  1.582E+00
   1    6    8     3     6    8.8768E-01  5.5980E-02   8.3170E-01  0.000E+00  0.000E+00  0.000E+00  1.06158E+03  1.036E+00  6.145E+00  1.844E-02  1.518E+00
   1    5   10     4     1    1.0000E+01  9.0919E-02   9.9091E+00  0.000E+00  0.000E+00  0.000E+00  1.07836E+03  6.368E-01  1.000E+01  2.500E-02  1.212E+00
   1    5    9     4     2    9.9091E+00  1.8158E-01   9.7275E+00  0.000E+00  0.000E+00  0.000E+00  1.07154E+03  6.315E-01  1.000E+01  5.000E-02  1.211E+00
   1    6    8     4     3    9.7275E+00  1.2689E-01   9.6006E+00  0.000E+00  0.000E+00  0.000E+00  1.06381E+03  6.256E-01  1.000E+01  3.500E-02  1.209E+00
   1    6    8     5     1    1.0432E+01  2.2686E-01   1.0205E+01  0.000E+00  0.000E+00  0.000E+00  1.05868E+03  6.790E-01  1.542E+01  6.166E-02  1.226E+00
   1    7    7     5     2    1.0205E+01  2.7894E-01   9.9265E+00  0.000E+00  0.000E+00  0.000E+00  1.05417E+03  6.732E-01  1.519E+01  7.594E-02  1.224E+00
   1    8    7     5     3    9.9265E+00  1.9221E-01   9.7343E+00  0.000E+00  0.000E+00  0.000E+00  1.04992E+03  6.676E-01  1.497E+01  5.241E-02  1.223E+00
   1    8    6     5     4    9.7343E+00  1.3577E-01   9.5985E+00  0.000E+00  0.000E+00  0.000E+00  1.04691E+03  6.637E-01  1.482E+01  3.706E-02  1.221E+00
   1    9    6     6     1    2.9779E+01  2.6116E-01   2.9518E+01  0.000E+00  0.000E+00  0.000E+00  1.04408E+03  1.353E+00  1.200E+01  6.000E-02  1.451E+00
   1   10    7     6     2    2.9518E+01  2.6073E-01   2.9257E+01  0.000E+00  0.000E+00  0.000E+00  1.03953E+03  1.345E+00  1.200E+01  6.000E-02  1.448E+00
   1   11    7     6     3    2.9257E+01  2.6030E-01   2.8997E+01  0.000E+00  0.000E+00  0.000E+00  1.03497E+03  1.338E+00  1.200E+01  6.000E-02  1.446E+00
   1   12    7     6     4    2.8997E+01  2.5987E-01   2.8737E+01  0.000E+00  0.000E+00  0.000E+00  1.03042E+03  1.331E+00  1.200E+01  6.000E-02  1.444E+00
   1   13    7     6     5    2.8737E+01  1.6856E-02   2.8720E+01  0.000E+00  0.000E+00  0.000E+00  1.02724E+03  1.327E+00  1.200E+01  2.400E-02  2.341E-01
   1   14    9     7     1    1.5000E+02  1.3778E+00   1.4862E+02  0.000E+00  0.000E+00  0.000E+00  1.03987E+03  2.288E+00  5.529E+01  5.593E-01  8.212E-01
   1   13    8     7     2    1.4862E+02  1.9954E+00   1.4663E+02  0.000E+00  0.000E+00  0.000E+00  1.03478E+03  2.279E+00  5.525E+01  6.147E-01  1.082E+00
   1   13    7     7     3    1.4663E+02  1.7610E+00   1.4487E+02  0.000E+00  0.000E+00  0.000E+00  1.02969E+03  2.269E+00  5.521E+01  5.584E-01  1.051E+00
   1   13    6     8     1    1.7359E+02  1.2167E+00   1.7237E+02  0.000E+00  0.000E+00  0.000E+00  1.02485E+03  2.971E+00  4.309E+01  4.391E-01  9.237E-01
   1   13    5     8     2    1.7237E+02  4.3593E-01   1.7193E+02  0.000E+00  0.000E+00  0.000E+00  1.01859E+03  2.966E+00  4.301E+01  4.383E-01  3.315E-01
   1   13    4     8     3    1.7193E+02 -1.6021E+00   1.7354E+02  0.000E+00  0.000E+00  0.000E+00  1.01234E+03  2.970E+00  4.306E+01  4.388E+00 -1.217E-01
   1   13    3     8     4    1.7354E+02 -3.2485E+00   1.7678E+02  0.000E+00  0.000E+00  0.000E+00  1.00611E+03  2.985E+00  4.329E+01  4.411E+00 -2.455E-01
   1   13    2     8     5    1.7678E+02 -2.4917E+00   1.7928E+02  0.000E+00  0.000E+00  0.000E+00  9.99879E+02  3.004E+00  4.355E+01  4.438E+00 -1.871E-01
   1   13    1     8     6    1.7928E+02 -1.9729E+00   1.8125E+02  0.000E+00  0.000E+00  0.000E+00  9.94893E+02  3.018E+00  4.376E+01  2.675E+00 -2.458E-01
   1    8    6     9     1    1.9541E-07  0.0000E+00   1.9541E-07  0.000E+00  0.000E+00  0.000E+00  1.07875E+03  3.253E-05  4.000E+00  0.000E+00  1.000E+00
   1    8    5     9     2    1.9541E-07  0.0000E+00   1.9541E-07  0.000E+00  0.000E+00  0.000E+00  1.07825E+03  3.253E-05  4.000E+00  0.000E+00  1.000E+00





UNSATURATED ZONE PACKAGE VOLUMETRIC BUDGET FOR  TIME STEP    30 STRESS PERIOD   17
  ------------------------------------------------------------------------------



     CUMULATIVE VOLUMES      L**3       RATES FOR THIS TIME STEP      L**3/T
     ------------------                 ------------------------

           IN:                                      IN:
           ---                                      ---
        INFILTRATION =  3547395783.4314          INFILTRATION =           0.8475

          OUT:                                     OUT:
          ----                                     ----
              UZF ET =   449315840.0010                UZF ET =           4.5675
        UZF RECHARGE =  2489133546.1123          UZF RECHARGE =       0.0000E+00

            IN - OUT =   608946397.3181              IN - OUT =          -3.7200

          STORAGE:                                 STORAGE:
          --------                                 --------
      STORAGE CHANGE =   609339013.9983        STORAGE CHANGE =          -3.7200

 PERCENT DISCREPANCY IS DIFFERENCE BETWEEN IN-OUT MINUS CHANGE IN STORAGE
 DIVIDED BY THE AVERAGE OF IN AND OUT TIMES 100

 PERCENT DISCREPANCY =          -0.00     PERCENT DISCREPANCY =           0.00






1
  VOLUMETRIC BUDGET FOR AGRICULTURAL FIELDS AT  END OF TIME STEP   30, STRESS PERIOD  17
  ------------------------------------------------------------------------------

     CUMULATIVE VOLUMES      L**3       RATES FOR THIS TIME STEP      L**3/T
     ------------------                 ------------------------

           IN:                                      IN:
           ---                                      ---
               AG WELLS  =  3315302400.0000                 AG WELLS  =       1.1066E-07
      DIVERSION SEGMENTS =   196382384.0000        DIVERSION SEGMENTS =       1.9541E-07
           GW IRRIGATION =           0.0000             GW IRRIGATION =           0.0000
           SW IRRIGATION =           0.0000             SW IRRIGATION =           0.0000
        SYSTEM LOSSES GW =           0.0000          SYSTEM LOSSES GW =           0.0000
        SYSTEM LOSSES SW =           0.0000          SYSTEM LOSSES SW =           0.0000

                TOTAL IN =  3511684864.0000                  TOTAL IN =       3.0607E-07

          OUT:                                     OUT:
          ----                                     ----
               AG WELLS  =           0.0000                 AG WELLS  =           0.0000
      DIVERSION SEGMENTS =           0.0000        DIVERSION SEGMENTS =           0.0000
           GW IRRIGATION =  3315302400.0000             GW IRRIGATION =       1.1066E-07
           SW IRRIGATION =   196386256.0000             SW IRRIGATION =       1.9542E-07
        SYSTEM LOSSES GW =           0.0000          SYSTEM LOSSES GW =           0.0000
        SYSTEM LOSSES SW =           0.0000          SYSTEM LOSSES SW =           0.0000

               TOTAL OUT =  3511688704.0000                 TOTAL OUT =       3.0608E-07

                IN - OUT =       -3840.0000                  IN - OUT =      -3.8938E-12

     PERCENT DISCREPANCY =          -0.00         PERCENT DISCREPANCY =          -0.00



1
  VOLUMETRIC BUDGET FOR ENTIRE MODEL AT END OF TIME STEP   30, STRESS PERIOD  17
  ------------------------------------------------------------------------------

     CUMULATIVE VOLUMES      L**3       RATES FOR THIS TIME STEP      L**3/T
     ------------------                 ------------------------

           IN:                                      IN:
           ---                                      ---
             STORAGE     =  3592150016.0000               STORAGE     =          25.0961
       CONSTANT HEAD     =           0.0000         CONSTANT HEAD     =           0.0000
     HEAD DEP BOUNDS     =    12146055.0000       HEAD DEP BOUNDS     =           0.2886
      STREAM LEAKAGE     =   503931456.0000        STREAM LEAKAGE     =          12.7825
        UZF RECHARGE     =  2489131264.0000          UZF RECHARGE     =           0.0000
               GW ET     =           0.0000                 GW ET     =           0.0000
     SURFACE LEAKAGE     =           0.0000       SURFACE LEAKAGE     =           0.0000
           AG WELLS      =           0.0000             AG WELLS      =           0.0000

                TOTAL IN =  6597358592.0000                  TOTAL IN =          38.1672

          OUT:                                     OUT:
          ----                                     ----
             STORAGE     =  2853055232.0000               STORAGE     =          28.5620
       CONSTANT HEAD     =           0.0000         CONSTANT HEAD     =           0.0000
     HEAD DEP BOUNDS     =    12150884.0000       HEAD DEP BOUNDS     =           0.2899
      STREAM LEAKAGE     =   416793760.0000        STREAM LEAKAGE     =           9.3153
        UZF RECHARGE     =           0.0000          UZF RECHARGE     =           0.0000
               GW ET     =           0.0000                 GW ET     =           0.0000
     SURFACE LEAKAGE     =           0.0000       SURFACE LEAKAGE     =           0.0000
           AG WELLS      =  3315302400.0000             AG WELLS      =       1.1066E-07

               TOTAL OUT =  6597302272.0000                 TOTAL OUT =          38.1672

                IN - OUT =       56320.0000                  IN - OUT =       1.9073E-05

     PERCENT DISCREPANCY =           0.00         PERCENT DISCREPANCY =           0.00






         TIME SUMMARY AT END OF TIME STEP   30 IN STRESS PERIOD   17
                    SECONDS     MINUTES      HOURS       DAYS        YEARS
                    -----------------------------------------------------------
   TIME STEP LENGTH  87667.      1461.1      24.352      1.0147     2.77799E-03
 STRESS PERIOD TIME 2.63000E+06  43833.      730.56      30.440     8.33397E-02
         TOTAL TIME 4.21664E+07 7.02774E+05  11713.      488.04      1.3362    
1
1
                            STRESS PERIOD NO.   18, LENGTH =   2630000.    
                            -----------------------------------------------

                              NUMBER OF TIME STEPS =    30

                               MULTIPLIER FOR DELT =     1.000

                            INITIAL TIME STEP SIZE =   87666.66    

 REUSING NON-PARAMETER GHB CELLS FROM LAST STRESS PERIOD

      2 GHB CELLS

 REUSING STREAM SEGMENT DATA FROM LAST STRESS PERIOD



            AREAL INFILTRATION RATE
 READING ON UNIT   19 WITH FORMAT: (FREE)              

            1           2           3           4           5           6           7           8           9          10
 ........................................................................................................................
   1   1.0000E-10  2.0000E-10   0.000       0.000       0.000       0.000       0.000       0.000       0.000       0.000    
   2   2.0000E-10  1.0000E-10  2.0000E-10   0.000       0.000      8.0000E-10  8.0000E-10  5.0000E-10   0.000       0.000    
   3    0.000      5.0000E-10  1.0000E-10  1.0000E-10  8.0000E-10  8.0000E-10  5.0000E-10  5.0000E-10   0.000       0.000    
   4   8.0000E-10  5.0000E-10  1.0000E-10  1.0000E-10  1.0000E-10  1.0000E-10  1.0000E-10  1.0000E-10  2.0000E-10   0.000    
   5   8.0000E-10  5.0000E-10  1.0000E-10  1.0000E-10  1.0000E-10  1.0000E-10  1.0000E-10  1.0000E-10  1.0000E-10  1.0000E-10
   6   8.0000E-10  5.0000E-10  5.0000E-10  2.0000E-10  2.0000E-10  1.0000E-10  1.0000E-10  1.0000E-10  1.0000E-10  5.0000E-10
   7   8.0000E-10  5.0000E-10  5.0000E-10  2.0000E-10  2.0000E-10  1.0000E-10  1.0000E-10  2.0000E-10  2.0000E-10   0.000    
   8    0.000      5.0000E-10  5.0000E-10  2.0000E-10  2.0000E-10  1.0000E-10  1.0000E-10  2.0000E-10  5.0000E-10   0.000    
   9    0.000      5.0000E-10  5.0000E-10  2.0000E-10  2.0000E-10  1.0000E-10  1.0000E-10  2.0000E-10  5.0000E-10   0.000    
  10    0.000      5.0000E-10  5.0000E-10  2.0000E-10  2.0000E-10  1.0000E-10  1.0000E-10  2.0000E-10  5.0000E-10  8.0000E-10
  11    0.000      1.0000E-10  1.0000E-10  1.0000E-10  1.0000E-10  1.0000E-10  1.0000E-10  2.0000E-10  5.0000E-10   0.000    
  12   1.0000E-10  1.0000E-10  1.0000E-10  1.0000E-10  1.0000E-10  1.0000E-10  1.0000E-10  1.0000E-10  2.0000E-10   0.000    
  13   1.0000E-10  1.0000E-10  2.0000E-10  2.0000E-10  2.0000E-10  2.0000E-10  2.0000E-10  1.0000E-10  1.0000E-10   0.000    
  14    0.000      2.0000E-10  5.0000E-10  5.0000E-10  5.0000E-10  5.0000E-10  5.0000E-10  2.0000E-10  1.0000E-10   0.000    
  15    0.000       0.000      8.0000E-10  8.0000E-10  8.0000E-10  8.0000E-10   0.000       0.000       0.000       0.000    

                  ET RATE =  5.000000E-08

 USING ET EXTINCTION DEPTH FROM PREVIOUS STRESS PERIOD. CURRENT PERIOD IS:      18

 USING EXTINCTION WATER CONTENT FROM PREVIOUS STRESS PERIOD. CURRENT PERIOD IS:      18

 USING AIR ENTRY PRESSURE FROM PREVIOUS STRESS PERIOD. CURRENT PERIOD IS:      18

 USING ROOT PRESSURE HEAD FROM PREVIOUS STRESS PERIOD. CURRENT PERIOD IS:      18

 USING ROOT ACTIVITY FROM PREVIOUS STRESS PERIOD. CURRENT PERIOD IS:      18

 PROCESSING AG STRESS PERIOD DATA

 READING AG STRESS PERIOD DATA

 READING IRRIGATION SEGMENT

 READING IRRIGATION WELL

 READING SUPPLEMENTAL WELL

 END PROCESSING AG STRESS PERIOD DATA OPTIONS
 
 SOLVING FOR HEAD 
                                                   Max.-Head-Change                         Max.-Flux-Residual
  Residual-Control   Outer-Iter.   Inner-Iter.     Column Row Layer    Maximum-Head-Change  Column Row Layer    Maximum-Flux-Residual          L2-NORM 
          0                 1           2             5    8     1       0.1065068554E+00       5    8    1         0.5824426901E+01      0.1318825390E+02
          0                 2           2             5    8     1      -0.1036005360E-01       5    8    1        -0.5824316652E+00      0.1318778287E+01
          0                 3           2             5    8     1       0.7054828051E-03       5    8    1         0.4077033881E-01      0.9231486380E-01
          0                 4           1             5    8     1      -0.2807181378E-04       5    8    1        -0.1667508695E-02      0.3775682834E-02

    ------------------------------------------------
       NWT REQUIRED            4 OUTER ITERATIONS 
       AND A TOTAL OF          7 INNER ITERATIONS.
    ------------------------------------------------

 NO OUTPUT CONTROL FOR STRESS PERIOD   18   TIME STEP    1
 
 SOLVING FOR HEAD 
                                                   Max.-Head-Change                         Max.-Flux-Residual
  Residual-Control   Outer-Iter.   Inner-Iter.     Column Row Layer    Maximum-Head-Change  Column Row Layer    Maximum-Flux-Residual          L2-NORM 
          0                 1           2             5    8     1       0.1013014979E+00       5    8    1         0.5534656748E+01      0.1265965049E+02
          0                 2           2             5    8     1      -0.9853730110E-02       5    8    1        -0.5534557531E+00      0.1265922955E+01
          0                 3           2             5    8     1       0.6710038977E-03       5    8    1         0.3874201366E-01      0.8861494408E-01
          0                 4           1             5    8     1      -0.2669986671E-04       5    8    1        -0.1584550130E-02      0.3624349250E-02

    ------------------------------------------------
       NWT REQUIRED            4 OUTER ITERATIONS 
       AND A TOTAL OF          7 INNER ITERATIONS.
    ------------------------------------------------

 NO OUTPUT CONTROL FOR STRESS PERIOD   18   TIME STEP    2
 
 SOLVING FOR HEAD 
                                                   Max.-Head-Change                         Max.-Flux-Residual
  Residual-Control   Outer-Iter.   Inner-Iter.     Column Row Layer    Maximum-Head-Change  Column Row Layer    Maximum-Flux-Residual          L2-NORM 
          0                 1           2             5    8     1       0.9643895888E-01       5    8    1         0.5264157540E+01      0.1216397085E+02
          0                 2           2             5    8     1      -0.9380757191E-02       5    8    1        -0.5264067939E+00      0.1216209292E+01
          0                 3           2             5    8     1       0.6387960600E-03       5    8    1         0.3684857661E-01      0.8513495921E-01
          0                 4           1             5    8     1      -0.2541828699E-04       5    8    1        -0.1507108473E-02      0.3482020540E-02

    ------------------------------------------------
       NWT REQUIRED            4 OUTER ITERATIONS 
       AND A TOTAL OF          7 INNER ITERATIONS.
    ------------------------------------------------

 NO OUTPUT CONTROL FOR STRESS PERIOD   18   TIME STEP    3
 
 SOLVING FOR HEAD 
                                                   Max.-Head-Change                         Max.-Flux-Residual
  Residual-Control   Outer-Iter.   Inner-Iter.     Column Row Layer    Maximum-Head-Change  Column Row Layer    Maximum-Flux-Residual          L2-NORM 
          0                 1           2             5    8     1       0.9189348458E-01       5    8    1         0.5011471575E+01      0.1169883797E+02
          0                 2           2             4    7     1      -0.1868402091E+01       5    8    1        -0.1005011390E+03      0.2459516308E+03
          0                 3           2             4    7     1       0.1272119585E+00       5    8    1         0.7032908723E+01      0.1721786608E+02
          0                 4           2             4    7     1      -0.5061975623E-02       5    6    1        -0.2875352149E+00      0.7051961895E+00
          0                 5           1             4    7     1       0.6241620147E-04       4    8    1         0.3637987227E-02      0.9382141577E-02

    ------------------------------------------------
       NWT REQUIRED            5 OUTER ITERATIONS 
       AND A TOTAL OF          9 INNER ITERATIONS.
    ------------------------------------------------

 NO OUTPUT CONTROL FOR STRESS PERIOD   18   TIME STEP    4
 
 SOLVING FOR HEAD 
                                                   Max.-Head-Change                         Max.-Flux-Residual
  Residual-Control   Outer-Iter.   Inner-Iter.     Column Row Layer    Maximum-Head-Change  Column Row Layer    Maximum-Flux-Residual          L2-NORM 
          0                 1           2             5    8     1       0.1414147190E+00       5    8    1         0.7741928423E+01      0.1733635504E+02
          0                 2           2             5    8     1      -0.1374984666E-01       5    8    1        -0.7736986557E+00      0.1733531383E+01
          0                 3           2             5    8     1       0.9363159542E-03       5    8    1         0.5415908756E-01      0.1213480152E+00
          0                 4           1             5    8     1      -0.3725687713E-04       5    8    1        -0.2215109032E-02      0.4963136073E-02

    ------------------------------------------------
       NWT REQUIRED            4 OUTER ITERATIONS 
       AND A TOTAL OF          7 INNER ITERATIONS.
    ------------------------------------------------

 NO OUTPUT CONTROL FOR STRESS PERIOD   18   TIME STEP    5
 
 SOLVING FOR HEAD 
                                                   Max.-Head-Change                         Max.-Flux-Residual
  Residual-Control   Outer-Iter.   Inner-Iter.     Column Row Layer    Maximum-Head-Change  Column Row Layer    Maximum-Flux-Residual          L2-NORM 
          0                 1           2             5    8     1       0.1343847261E+00       5    8    1         0.7348909943E+01      0.1662792762E+02
          0                 2           2             5    8     1      -0.1307168476E-01       5    8    1        -0.7348756483E+00      0.1662768172E+01
          0                 3           2             5    8     1       0.8901354644E-03       5    8    1         0.5144146332E-01      0.1163945027E+00
          0                 4           1             5    8     1      -0.3541931318E-04       5    8    1        -0.2103958105E-02      0.4760538964E-02

    ------------------------------------------------
       NWT REQUIRED            4 OUTER ITERATIONS 
       AND A TOTAL OF          7 INNER ITERATIONS.
    ------------------------------------------------

 NO OUTPUT CONTROL FOR STRESS PERIOD   18   TIME STEP    6
 
 SOLVING FOR HEAD 
                                                   Max.-Head-Change                         Max.-Flux-Residual
  Residual-Control   Outer-Iter.   Inner-Iter.     Column Row Layer    Maximum-Head-Change  Column Row Layer    Maximum-Flux-Residual          L2-NORM 
          0                 1           2             5    8     1       0.1278152983E+00       5    8    1         0.6983290046E+01      0.1596438341E+02
          0                 2           2             5    8     1      -0.1243273716E-01       5    8    1        -0.6983148340E+00      0.1596373844E+01
          0                 3           2             5    8     1       0.8466253302E-03       5    8    1         0.4888219390E-01      0.1117468282E+00
          0                 4           1             5    8     1      -0.3368800487E-04       5    8    1        -0.1999283891E-02      0.4570448652E-02

    ------------------------------------------------
       NWT REQUIRED            4 OUTER ITERATIONS 
       AND A TOTAL OF          7 INNER ITERATIONS.
    ------------------------------------------------

 NO OUTPUT CONTROL FOR STRESS PERIOD   18   TIME STEP    7
 
 SOLVING FOR HEAD 
                                                   Max.-Head-Change                         Max.-Flux-Residual
  Residual-Control   Outer-Iter.   Inner-Iter.     Column Row Layer    Maximum-Head-Change  Column Row Layer    Maximum-Flux-Residual          L2-NORM 
          0                 1           2             5    8     1       0.1216772486E+00       5    8    1         0.6641917064E+01      0.1534224721E+02
          0                 2           2             5    8     1      -0.1183568801E-01       5    8    1        -0.6641786093E+00      0.1534166909E+01
          0                 3           2             5    8     1       0.8059683428E-03       5    8    1         0.4649264699E-01      0.1073922776E+00
          0                 4           1             5    8     1      -0.3207022619E-04       5    8    1        -0.1901551342E-02      0.4392347869E-02

    ------------------------------------------------
       NWT REQUIRED            4 OUTER ITERATIONS 
       AND A TOTAL OF          7 INNER ITERATIONS.
    ------------------------------------------------

 NO OUTPUT CONTROL FOR STRESS PERIOD   18   TIME STEP    8
 
 SOLVING FOR HEAD 
                                                   Max.-Head-Change                         Max.-Flux-Residual
  Residual-Control   Outer-Iter.   Inner-Iter.     Column Row Layer    Maximum-Head-Change  Column Row Layer    Maximum-Flux-Residual          L2-NORM 
          0                 1           2             5    8     1       0.1159381538E+00       5    8    1         0.6322952321E+01      0.1475841111E+02
          0                 2           2             4    7     1      -0.1869879356E+01       5    8    1        -0.1006322831E+03      0.2462132155E+03
          0                 3           2             4    7     1       0.1273126245E+00       5    8    1         0.7042133581E+01      0.1724739118E+02
          0                 4           2             4    7     1      -0.5065980839E-02       5    8    1        -0.2879133745E+00      0.7069579170E+00
          0                 5           1             4    7     1       0.6246558825E-04       4    8    1         0.3641857548E-02      0.9452322243E-02

    ------------------------------------------------
       NWT REQUIRED            5 OUTER ITERATIONS 
       AND A TOTAL OF          9 INNER ITERATIONS.
    ------------------------------------------------

 NO OUTPUT CONTROL FOR STRESS PERIOD   18   TIME STEP    9
 
 SOLVING FOR HEAD 
                                                   Max.-Head-Change                         Max.-Flux-Residual
  Residual-Control   Outer-Iter.   Inner-Iter.     Column Row Layer    Maximum-Head-Change  Column Row Layer    Maximum-Flux-Residual          L2-NORM 
          0                 1           2             5    8     1       0.1643712858E+00       5    8    1         0.8991937965E+01      0.2026534832E+02
          0                 2           2             5    8     1      -0.1600949201E-01       5    8    1        -0.9003259436E+00      0.2028776146E+01
          0                 3           2             5    8     1       0.1074298143E-02       5    8    1         0.6212366116E-01      0.1401913436E+00
          0                 4           1             6    7     1       0.2066630848E-04       6    7    1         0.1207969528E-02      0.3561168828E-02

    ------------------------------------------------
       NWT REQUIRED            4 OUTER ITERATIONS 
       AND A TOTAL OF          7 INNER ITERATIONS.
    ------------------------------------------------

 NO OUTPUT CONTROL FOR STRESS PERIOD   18   TIME STEP   10
 
 SOLVING FOR HEAD 
                                                   Max.-Head-Change                         Max.-Flux-Residual
  Residual-Control   Outer-Iter.   Inner-Iter.     Column Row Layer    Maximum-Head-Change  Column Row Layer    Maximum-Flux-Residual          L2-NORM 
          0                 1           2             5    8     1       0.1562812080E+00       5    8    1         0.8541511681E+01      0.1945340655E+02
          0                 2           2             5    8     1      -0.1520159189E-01       5    8    1        -0.8541299218E+00      0.1945243871E+01
          0                 3           2             5    8     1       0.1035175070E-02       5    8    1         0.5978932167E-01      0.1361680002E+00
          0                 4           1             5    8     1      -0.4119057126E-04       5    8    1        -0.2445385744E-02      0.5569274627E-02

    ------------------------------------------------
       NWT REQUIRED            4 OUTER ITERATIONS 
       AND A TOTAL OF          7 INNER ITERATIONS.
    ------------------------------------------------

 NO OUTPUT CONTROL FOR STRESS PERIOD   18   TIME STEP   11
 
 SOLVING FOR HEAD 
                                                   Max.-Head-Change                         Max.-Flux-Residual
  Residual-Control   Outer-Iter.   Inner-Iter.     Column Row Layer    Maximum-Head-Change  Column Row Layer    Maximum-Flux-Residual          L2-NORM 
          0                 1           2             5    8     1       0.1487247680E+00       5    8    1         0.8121093708E+01      0.1869245518E+02
          0                 2           2             5    8     1      -0.1446657938E-01       5    8    1        -0.8120897089E+00      0.1869158707E+01
          0                 3           2             5    8     1       0.9851232179E-03       5    8    1         0.5684649053E-01      0.1308419496E+00
          0                 4           1             5    8     1      -0.3919896220E-04       5    8    1        -0.2325023840E-02      0.5351437742E-02

    ------------------------------------------------
       NWT REQUIRED            4 OUTER ITERATIONS 
       AND A TOTAL OF          7 INNER ITERATIONS.
    ------------------------------------------------

 NO OUTPUT CONTROL FOR STRESS PERIOD   18   TIME STEP   12
 
 SOLVING FOR HEAD 
                                                   Max.-Head-Change                         Max.-Flux-Residual
  Residual-Control   Outer-Iter.   Inner-Iter.     Column Row Layer    Maximum-Head-Change  Column Row Layer    Maximum-Flux-Residual          L2-NORM 
          0                 1           2             5    8     1       0.1416624155E+00       5    8    1         0.7728442632E+01      0.1797858507E+02
          0                 2           2             5    8     1      -0.1377962044E-01       5    8    1        -0.7728260555E+00      0.1797920281E+01
          0                 3           2             5    8     1       0.9383436546E-03       5    8    1         0.5409801986E-01      0.1258551713E+00
          0                 4           1             5    8     1      -0.3733756028E-04       5    8    1        -0.2212611286E-02      0.5147479248E-02

    ------------------------------------------------
       NWT REQUIRED            4 OUTER ITERATIONS 
       AND A TOTAL OF          7 INNER ITERATIONS.
    ------------------------------------------------

 NO OUTPUT CONTROL FOR STRESS PERIOD   18   TIME STEP   13
 
 SOLVING FOR HEAD 
                                                   Max.-Head-Change                         Max.-Flux-Residual
  Residual-Control   Outer-Iter.   Inner-Iter.     Column Row Layer    Maximum-Head-Change  Column Row Layer    Maximum-Flux-Residual          L2-NORM 
          0                 1           2             5    8     1       0.1350568921E+00       5    8    1         0.7361448022E+01      0.1730808350E+02
          0                 2           2             5    8     1      -0.1329074309E-01       5    8    1        -0.7445862387E+00      0.1748597393E+01
          0                 3           2             5    8     1       0.8956550790E-03       5    8    1         0.5158940433E-01      0.1212941040E+00
          0                 4           1             4    7     1       0.6806995033E-04       4    7    1         0.3771336913E-02      0.8538175246E-02

    ------------------------------------------------
       NWT REQUIRED            4 OUTER ITERATIONS 
       AND A TOTAL OF          7 INNER ITERATIONS.
    ------------------------------------------------

 NO OUTPUT CONTROL FOR STRESS PERIOD   18   TIME STEP   14
 
 SOLVING FOR HEAD 
                                                   Max.-Head-Change                         Max.-Flux-Residual
  Residual-Control   Outer-Iter.   Inner-Iter.     Column Row Layer    Maximum-Head-Change  Column Row Layer    Maximum-Flux-Residual          L2-NORM 
          0                 1           2             5    8     1       0.1288764012E+00       5    8    1         0.7018308648E+01      0.1667790592E+02
          0                 2           2             4    7     1      -0.1871377909E+01       5    8    1        -0.1007018152E+03      0.2463965351E+03
          0                 3           2             4    7     1       0.1274146471E+00       5    8    1         0.7047017707E+01      0.1724919239E+02
          0                 4           2             4    7     1      -0.5070040496E-02       5    8    1        -0.2881143768E+00      0.7058985213E+00
          0                 5           1             4    7     1       0.6251564600E-04       4    8    1         0.3644779923E-02      0.9068306044E-02

    ------------------------------------------------
       NWT REQUIRED            5 OUTER ITERATIONS 
       AND A TOTAL OF          9 INNER ITERATIONS.
    ------------------------------------------------

 NO OUTPUT CONTROL FOR STRESS PERIOD   18   TIME STEP   15
 
 SOLVING FOR HEAD 
                                                   Max.-Head-Change                         Max.-Flux-Residual
  Residual-Control   Outer-Iter.   Inner-Iter.     Column Row Layer    Maximum-Head-Change  Column Row Layer    Maximum-Flux-Residual          L2-NORM 
          0                 1           2             5    8     1       0.1768755477E+00       5    8    1         0.9663513779E+01      0.2207665948E+02
          0                 2           2             5    8     1      -0.1720476961E-01       5    8    1        -0.9663239075E+00      0.2207544057E+01
          0                 3           2             5    8     1       0.1171584926E-02       5    8    1         0.6764296294E-01      0.1545291949E+00
          0                 4           1             5    8     1      -0.4661844296E-04       5    8    1        -0.2766599844E-02      0.6320239574E-02

    ------------------------------------------------
       NWT REQUIRED            4 OUTER ITERATIONS 
       AND A TOTAL OF          7 INNER ITERATIONS.
    ------------------------------------------------

 NO OUTPUT CONTROL FOR STRESS PERIOD   18   TIME STEP   16
 
 SOLVING FOR HEAD 
                                                   Max.-Head-Change                         Max.-Flux-Residual
  Residual-Control   Outer-Iter.   Inner-Iter.     Column Row Layer    Maximum-Head-Change  Column Row Layer    Maximum-Flux-Residual          L2-NORM 
          0                 1           2             5    8     1       0.1683852811E+00       5    8    1         0.9191228783E+01      0.2122518601E+02
          0                 2           2             5    8     1      -0.1637892774E-01       5    8    1        -0.9190974407E+00      0.2122409265E+01
          0                 3           2             5    8     1       0.1115347867E-02       5    8    1         0.6433708961E-01      0.1485696474E+00
          0                 4           1             5    8     1      -0.4438071849E-04       5    8    1        -0.2631389502E-02      0.6076495521E-02

    ------------------------------------------------
       NWT REQUIRED            4 OUTER ITERATIONS 
       AND A TOTAL OF          7 INNER ITERATIONS.
    ------------------------------------------------

 NO OUTPUT CONTROL FOR STRESS PERIOD   18   TIME STEP   17
 
 SOLVING FOR HEAD 
                                                   Max.-Head-Change                         Max.-Flux-Residual
  Residual-Control   Outer-Iter.   Inner-Iter.     Column Row Layer    Maximum-Head-Change  Column Row Layer    Maximum-Flux-Residual          L2-NORM 
          0                 1           2             5    8     1       0.1604485098E+00       5    8    1         0.8750046768E+01      0.2042624970E+02
          0                 2           2             5    8     1      -0.1560692344E-01       5    8    1        -0.8749811055E+00      0.2042526934E+01
          0                 3           2             5    8     1       0.1062776971E-02       5    8    1         0.6124892718E-01      0.1429777915E+00
          0                 4           1             5    8     1      -0.4228887521E-04       5    8    1        -0.2505083588E-02      0.5847790592E-02

    ------------------------------------------------
       NWT REQUIRED            4 OUTER ITERATIONS 
       AND A TOTAL OF          7 INNER ITERATIONS.
    ------------------------------------------------

 NO OUTPUT CONTROL FOR STRESS PERIOD   18   TIME STEP   18
 
 SOLVING FOR HEAD 
                                                   Max.-Head-Change                         Max.-Flux-Residual
  Residual-Control   Outer-Iter.   Inner-Iter.     Column Row Layer    Maximum-Head-Change  Column Row Layer    Maximum-Flux-Residual          L2-NORM 
          0                 1           2             5    8     1       0.1530238414E+00       5    8    1         0.8337624057E+01      0.1967581696E+02
          0                 2           2             5    8     1      -0.1488473058E-01       5    8    1        -0.8337405492E+00      0.1967493841E+01
          0                 3           2             5    8     1       0.1013598071E-02       5    8    1         0.5836207076E-01      0.1377253893E+00
          0                 4           1             5    8     1      -0.4033200154E-04       5    8    1        -0.2387011061E-02      0.5632969296E-02

    ------------------------------------------------
       NWT REQUIRED            4 OUTER ITERATIONS 
       AND A TOTAL OF          7 INNER ITERATIONS.
    ------------------------------------------------

 NO OUTPUT CONTROL FOR STRESS PERIOD   18   TIME STEP   19
 
 SOLVING FOR HEAD 
                                                   Max.-Head-Change                         Max.-Flux-Residual
  Residual-Control   Outer-Iter.   Inner-Iter.     Column Row Layer    Maximum-Head-Change  Column Row Layer    Maximum-Flux-Residual          L2-NORM 
          0                 1           2             5    8     1       0.1460732119E+00       5    8    1         0.7951806874E+01      0.1897019978E+02
          0                 2           2             5    8     1      -0.1441523995E-01       5    8    1        -0.8065341749E+00      0.1921248148E+01
          0                 3           2             5    8     1       0.7062852644E-03       5    8    1         0.4087514552E-01      0.1028426140E+00
          0                 4           2             4    7     1      -0.4286362155E-02       5    8    1        -0.2438943052E+00      0.5966082869E+00
          0                 5           2             4    7     1       0.4486960056E-02       5    6    1         0.2614871339E+00      0.6437751954E+00
          0                 6           2             4    7     1       0.1123848497E-03       5    8    1         0.6552673747E-02      0.1614662081E-01
          0                 7           1             4    7     1      -0.4204522248E-04       4    7    1        -0.2518041885E-02      0.6493437820E-02

    ------------------------------------------------
       NWT REQUIRED            7 OUTER ITERATIONS 
       AND A TOTAL OF         13 INNER ITERATIONS.
    ------------------------------------------------

 NO OUTPUT CONTROL FOR STRESS PERIOD   18   TIME STEP   20
 
 SOLVING FOR HEAD 
                                                   Max.-Head-Change                         Max.-Flux-Residual
  Residual-Control   Outer-Iter.   Inner-Iter.     Column Row Layer    Maximum-Head-Change  Column Row Layer    Maximum-Flux-Residual          L2-NORM 
          0                 1           2             5    8     1       0.1619401233E+00       5    8    1         0.8825193238E+01      0.1885194778E+02
          0                 2           2             4    7     1      -0.1872761199E+01       5    6    1        -0.1007522683E+03      0.2447028193E+03
          0                 3           2             4    7     1       0.1274669326E+00       5    6    1         0.7050680430E+01      0.1577194689E+02
          0                 4           2             4    7     1      -0.5072133872E-02       5    6    1        -0.2882801397E+00      0.6454688922E+00
          0                 5           1             4    7     1       0.6254143686E-04       4    8    1         0.3647278960E-02      0.8266451450E-02

    ------------------------------------------------
       NWT REQUIRED            5 OUTER ITERATIONS 
       AND A TOTAL OF          9 INNER ITERATIONS.
    ------------------------------------------------

 NO OUTPUT CONTROL FOR STRESS PERIOD   18   TIME STEP   21
 
 SOLVING FOR HEAD 
                                                   Max.-Head-Change                         Max.-Flux-Residual
  Residual-Control   Outer-Iter.   Inner-Iter.     Column Row Layer    Maximum-Head-Change  Column Row Layer    Maximum-Flux-Residual          L2-NORM 
          0                 1           2             5    8     1       0.1872379285E+00       5    8    1         0.1021816514E+02      0.2360954195E+02
          0                 2           2             5    8     1      -0.1821269059E-01       5    8    1        -0.1021785140E+01      0.2360820554E+01
          0                 3           2             5    8     1       0.1240221419E-02       5    8    1         0.7152530266E-01      0.1652585589E+00
          0                 4           1             5    8     1      -0.4934980579E-04       5    8    1        -0.2925402433E-02      0.6759100214E-02

    ------------------------------------------------
       NWT REQUIRED            4 OUTER ITERATIONS 
       AND A TOTAL OF          7 INNER ITERATIONS.
    ------------------------------------------------

 NO OUTPUT CONTROL FOR STRESS PERIOD   18   TIME STEP   22
 
 SOLVING FOR HEAD 
                                                   Max.-Head-Change                         Max.-Flux-Residual
  Residual-Control   Outer-Iter.   Inner-Iter.     Column Row Layer    Maximum-Head-Change  Column Row Layer    Maximum-Flux-Residual          L2-NORM 
          0                 1           2             5    8     1       0.1784498565E+00       5    8    1         0.9729670241E+01      0.2273022415E+02
          0                 2           2             5    8     1      -0.1735788405E-01       5    8    1        -0.9729379389E+00      0.2272902750E+01
          0                 3           2             5    8     1       0.1182011675E-02       5    8    1         0.6810596062E-01      0.1591042500E+00
          0                 4           1             5    8     1      -0.4703333174E-04       5    8    1        -0.2785536389E-02      0.6507364207E-02

    ------------------------------------------------
       NWT REQUIRED            4 OUTER ITERATIONS 
       AND A TOTAL OF          7 INNER ITERATIONS.
    ------------------------------------------------

 NO OUTPUT CONTROL FOR STRESS PERIOD   18   TIME STEP   23
 
 SOLVING FOR HEAD 
                                                   Max.-Head-Change                         Max.-Flux-Residual
  Residual-Control   Outer-Iter.   Inner-Iter.     Column Row Layer    Maximum-Head-Change  Column Row Layer    Maximum-Flux-Residual          L2-NORM 
          0                 1           2             5    8     1       0.3048327231E+00       5    8    1         0.1669816481E+02      0.2593524486E+02
          0                 2           2             5    8     1       0.1225966413E+00       5    8    1         0.6774738728E+01      0.7059352298E+01
          0                 3           2             5    8     1       0.4930413272E-01       5    8    1         0.2718887204E+01      0.2722502239E+01
          0                 4           2             5    8     1       0.1982853750E-01       5    8    1         0.1093776044E+01      0.1093792360E+01
          0                 5           2             5    8     1       0.7974407893E-02       5    8    1         0.4398799876E+00      0.4398822200E+00
          0                 6           1             5    8     1       0.3207055038E-02       5    8    1         0.1769054885E+00      0.1769063234E+00
          0                 7           1             5    8     1       0.1289776501E-02       5    8    1         0.7114591900E-01      0.7114625310E-01
          0                 8           1             5    8     1       0.5187075145E-03       5    8    1         0.2861264894E-01      0.2861278349E-01
          0                 9           1             5    8     1       0.2086078425E-03       5    8    1         0.1150710876E-01      0.1150716283E-01
          0                10           1             5    8     1       0.8389551223E-04       5    8    1         0.4627797363E-02      0.4627819097E-02

    ------------------------------------------------
       NWT REQUIRED           10 OUTER ITERATIONS 
       AND A TOTAL OF         15 INNER ITERATIONS.
    ------------------------------------------------

 NO OUTPUT CONTROL FOR STRESS PERIOD   18   TIME STEP   24
 
 SOLVING FOR HEAD 
                                                   Max.-Head-Change                         Max.-Flux-Residual
  Residual-Control   Outer-Iter.   Inner-Iter.     Column Row Layer    Maximum-Head-Change  Column Row Layer    Maximum-Flux-Residual          L2-NORM 
          0                 1           2             5    8     1       0.5252820556E+00       5    8    1         0.2883955899E+02      0.3471548819E+02
          0                 2           2             5    8     1       0.2244071363E+00       5    8    1         0.1239425043E+02      0.1254393576E+02
          0                 3           2             5    8     1       0.9586711894E-01       5    8    1         0.5287802668E+01      0.5289613720E+01
          0                 4           2             5    8     1       0.4095481606E-01       5    8    1         0.2259388991E+01      0.2259400639E+01
          0                 5           2             5    8     1       0.1749607542E-01       5    8    1         0.9652190592E+00      0.9652233189E+00
          0                 6           2             5    8     1       0.7474402753E-02       5    8    1         0.4123466903E+00      0.4123484418E+00
          0                 7           1             5    8     1       0.3193099336E-02       5    8    1         0.1761566519E+00      0.1761573993E+00
          0                 8           1             5    8     1       0.1364106873E-02       5    8    1         0.7525497055E-01      0.7525528981E-01
          0                 9           1             5    8     1       0.5827528143E-03       5    8    1         0.3214928144E-01      0.3214941774E-01
          0                10           1             5    8     1       0.2489547224E-03       5    8    1         0.1373432446E-01      0.1373438267E-01
                                                   Max.-Head-Change                         Max.-Flux-Residual
  Residual-Control   Outer-Iter.   Inner-Iter.     Column Row Layer    Maximum-Head-Change  Column Row Layer    Maximum-Flux-Residual          L2-NORM 
          0                11           1             5    8     1       0.1063546198E-03       5    8    1         0.5867367868E-02      0.5867392725E-02
          0                12           1             5    8     1       0.4543519064E-04       5    8    1         0.2506567049E-02      0.2506577702E-02

    ------------------------------------------------
       NWT REQUIRED           12 OUTER ITERATIONS 
       AND A TOTAL OF         18 INNER ITERATIONS.
    ------------------------------------------------

 NO OUTPUT CONTROL FOR STRESS PERIOD   18   TIME STEP   25
 
 SOLVING FOR HEAD 
                                                   Max.-Head-Change                         Max.-Flux-Residual
  Residual-Control   Outer-Iter.   Inner-Iter.     Column Row Layer    Maximum-Head-Change  Column Row Layer    Maximum-Flux-Residual          L2-NORM 
          0                 1           2             5    8     1       0.3792078057E+00       5    8    1         0.2074288027E+02      0.2818266996E+02
          0                 2           2             5    8     1       0.1617752281E+00       5    8    1         0.8944113971E+01      0.9149967668E+01
          0                 3           2             5    8     1       0.6881679013E-01       5    8    1         0.3795969820E+01      0.3797520031E+01
          0                 4           2             5    8     1       0.2522514471E-01       5    8    1         0.1398465472E+01      0.1485230498E+01
          0                 5           2             5    8     1       0.1523553229E-01       5    8    1         0.8332745857E+00      0.9959200280E+00
          0                 6           2             5    8     1       0.6565797331E-02       5    8    1         0.3620246615E+00      0.3623915484E+00
          0                 7           1             5    8     1       0.2755120941E-02       5    8    1         0.1520728138E+00      0.1521751339E+00
          0                 8           2             5    8     1       0.6246442537E-03       5    8    1         0.3535116800E-01      0.7498066311E-01
          0                 9           2             5    8     1       0.8336597296E-03       5    8    1         0.4511545312E-01      0.7990436330E-01
          0                10           1             5    8     1       0.3887069093E-03       5    8    1         0.2133175742E-01      0.2303598896E-01
                                                   Max.-Head-Change                         Max.-Flux-Residual
  Residual-Control   Outer-Iter.   Inner-Iter.     Column Row Layer    Maximum-Head-Change  Column Row Layer    Maximum-Flux-Residual          L2-NORM 
          0                11           1             5    8     1       0.1131866478E-03       5    8    1         0.6321317311E-02      0.8753943376E-02
          0                12           2             5    8     1      -0.1850495770E-02       5    6    1        -0.1047150789E+00      0.2553184641E+00
          0                13           2             5    8     1      -0.8193476652E-01       5    8    1        -0.4512335647E+01      0.1097860934E+02
          0                14           2             4    7     1       0.3478821112E-01       4    7    1         0.2260964356E+01      0.5124441070E+01
          0                15           2             5    8     1      -0.7074741193E-01       4    7    1        -0.4162196272E+01      0.1017557115E+02
          0                16           2             5    8     1      -0.3343856052E-01       5    8    1        -0.1986171013E+01      0.2378717865E+01
          0                17           2             5    8     1      -0.1580457757E-01       5    8    1        -0.9445489758E+00      0.9628862987E+00
          0                18           2             5    8     1      -0.7469882466E-02       5    8    1        -0.4472381312E+00      0.4481267030E+00
          0                19           2             5    8     1      -0.3530529664E-02       5    8    1        -0.2114915547E+00      0.2115521795E+00
          0                20           1             5    8     1      -0.1668634261E-02       5    8    1        -0.9997205461E-01      0.9998087779E-01
                                                   Max.-Head-Change                         Max.-Flux-Residual
  Residual-Control   Outer-Iter.   Inner-Iter.     Column Row Layer    Maximum-Head-Change  Column Row Layer    Maximum-Flux-Residual          L2-NORM 
          0                21           1             5    8     1      -0.7886379119E-03       5    8    1        -0.4725100549E-01      0.4725366033E-01
          0                22           1             5    8     1      -0.3727257125E-03       5    8    1        -0.2233183604E-01      0.2233293092E-01
          0                23           1             5    8     1      -0.1761555246E-03       5    8    1        -0.1055428485E-01      0.1055478211E-01
          0                24           1             5    8     1      -0.8325271330E-04       5    8    1        -0.4988008279E-02      0.4988240561E-02

    ------------------------------------------------
       NWT REQUIRED           24 OUTER ITERATIONS 
       AND A TOTAL OF         40 INNER ITERATIONS.
    ------------------------------------------------

 NO OUTPUT CONTROL FOR STRESS PERIOD   18   TIME STEP   26
 
 SOLVING FOR HEAD 
                                                   Max.-Head-Change                         Max.-Flux-Residual
  Residual-Control   Outer-Iter.   Inner-Iter.     Column Row Layer    Maximum-Head-Change  Column Row Layer    Maximum-Flux-Residual          L2-NORM 
          0                 1           2             5    8     1       0.3501865548E+00       5    8    1         0.1912227887E+02      0.2698477433E+02
          0                 2           2             5    8     1       0.1495808445E+00       5    8    1         0.8273445989E+01      0.8489661830E+01
          0                 3           2             5    8     1       0.6389125165E-01       5    8    1         0.3523814900E+01      0.3526441212E+01
          0                 4           2             5    8     1       0.2729032442E-01       5    8    1         0.1505777383E+01      0.1505786500E+01
          0                 5           2             5    8     1       0.1165671613E-01       5    8    1         0.6431559249E+00      0.6431589523E+00
          0                 6           1             5    8     1       0.4979020008E-02       5    8    1         0.2747169387E+00      0.2747181064E+00
          0                 7           1             5    8     1       0.2126726173E-02       5    8    1         0.1173419949E+00      0.1173424966E+00
          0                 8           1             5    8     1       0.9084045544E-03       5    8    1         0.5012118364E-01      0.5012139776E-01
          0                 9           1             5    8     1       0.3880136821E-03       5    8    1         0.2140864219E-01      0.2140873360E-01
          0                10           1             5    8     1       0.1657352090E-03       5    8    1         0.9144435400E-02      0.9144474448E-02
          0                11           1             5    8     1       0.7079172984E-04       5    8    1         0.3905931827E-02      0.3905948692E-02

    ------------------------------------------------
       NWT REQUIRED           11 OUTER ITERATIONS 
       AND A TOTAL OF         16 INNER ITERATIONS.
    ------------------------------------------------

 NO OUTPUT CONTROL FOR STRESS PERIOD   18   TIME STEP   27
 
 SOLVING FOR HEAD 
                                                   Max.-Head-Change                         Max.-Flux-Residual
  Residual-Control   Outer-Iter.   Inner-Iter.     Column Row Layer    Maximum-Head-Change  Column Row Layer    Maximum-Flux-Residual          L2-NORM 
          0                 1           2             5    6     1       0.3179157579E+00       5    6    1         0.1736510707E+02      0.3111947563E+02
          0                 2           2             5    8     1       0.1369141606E+00       5    6    1         0.7510584423E+01      0.1207043645E+02
          0                 3           2             5    8     1       0.5931994127E-01       5    8    1         0.3234544060E+01      0.5191355122E+01
          0                 4           2             5    8     1       0.2571215276E-01       5    8    1         0.1401803184E+01      0.2254208983E+01
          0                 5           2             5    8     1       0.1114959510E-01       5    8    1         0.6076520472E+00      0.9793507603E+00
          0                 6           2             5    8     1       0.4836831137E-02       5    8    1         0.2635182226E+00      0.4257179590E+00
          0                 7           2             5    8     1       0.2099143104E-02       5    8    1         0.1143264654E+00      0.1851564107E+00
          0                 8           2             5    8     1       0.9113820584E-03       5    8    1         0.4962055946E-01      0.8057209632E-01
          0                 9           2             5    8     1       0.3958531586E-03       5    8    1         0.2154534373E-01      0.3507971304E-01
          0                10           2             5    8     1       0.1720048763E-03       5    8    1         0.9358795971E-02      0.1528088758E-01
          0                11           1             5    8     1       0.7476840176E-04       5    8    1         0.4066858882E-02      0.6659747120E-02

    ------------------------------------------------
       NWT REQUIRED           11 OUTER ITERATIONS 
       AND A TOTAL OF         21 INNER ITERATIONS.
    ------------------------------------------------

 NO OUTPUT CONTROL FOR STRESS PERIOD   18   TIME STEP   28
 
 SOLVING FOR HEAD 
                                                   Max.-Head-Change                         Max.-Flux-Residual
  Residual-Control   Outer-Iter.   Inner-Iter.     Column Row Layer    Maximum-Head-Change  Column Row Layer    Maximum-Flux-Residual          L2-NORM 
          0                 1           2             4    8     1       0.4501657608E+00       4    8    1         0.2419888152E+02      0.4342207042E+02
          0                 2           2             4    8     1       0.1981763108E+00       4    8    1         0.1067376737E+02      0.1836120606E+02
          0                 3           2             4    8     1       0.8721822511E-01       4    8    1         0.4696833261E+01      0.8015080950E+01
          0                 4           2             4    8     1       0.3837581047E-01       4    8    1         0.2067081009E+01      0.3507784576E+01
          0                 5           2             4    8     1       0.1688156930E-01       4    8    1         0.9094753493E+00      0.1535336809E+01
          0                 6           2             4    8     1       0.7424764001E-02       4    8    1         0.4000638574E+00      0.6720584409E+00
          0                 7           2             4    8     1       0.3264943352E-02       4    8    1         0.1759478994E+00      0.2941977007E+00
          0                 8           2             4    8     1       0.1435487639E-02       4    8    1         0.7736834178E-01      0.1287938553E+00
          0                 9           2             4    8     1       0.6310458261E-03       4    8    1         0.3401532527E-01      0.5638597042E-01
          0                10           2             4    8     1       0.2773741996E-03       4    8    1         0.1495287837E-01      0.2468675220E-01
                                                   Max.-Head-Change                         Max.-Flux-Residual
  Residual-Control   Outer-Iter.   Inner-Iter.     Column Row Layer    Maximum-Head-Change  Column Row Layer    Maximum-Flux-Residual          L2-NORM 
          0                11           2             4    8     1       0.1219046799E-03       4    8    1         0.6572336390E-02      0.1080864814E-01
          0                12           1             4    8     1       0.5357084280E-04       4    8    1         0.2888450300E-02      0.4732507861E-02

    ------------------------------------------------
       NWT REQUIRED           12 OUTER ITERATIONS 
       AND A TOTAL OF         23 INNER ITERATIONS.
    ------------------------------------------------

 NO OUTPUT CONTROL FOR STRESS PERIOD   18   TIME STEP   29
 
 SOLVING FOR HEAD 
                                                   Max.-Head-Change                         Max.-Flux-Residual
  Residual-Control   Outer-Iter.   Inner-Iter.     Column Row Layer    Maximum-Head-Change  Column Row Layer    Maximum-Flux-Residual          L2-NORM 
          0                 1           2             5    7     1       0.4404830703E+00       5    7    1         0.2366776829E+02      0.4348667332E+02
          0                 2           2             5    7     1       0.1937554231E+00       5    7    1         0.1044522266E+02      0.1871187136E+02
          0                 3           2             5    7     1       0.8530662405E-01       5    7    1         0.4591197101E+01      0.8325532278E+01
          0                 4           2             5    7     1       0.3759460416E-01       5    7    1         0.2021994547E+01      0.3720988628E+01
          0                 5           2             5    7     1       0.1658381349E-01       5    7    1         0.8912474479E+00      0.1665938188E+01
          0                 6           2             5    7     1       0.7322542576E-02       5    7    1         0.3932193147E+00      0.7471491125E+00
          0                 7           2             5    8     1       0.3363529536E-02       5    8    1         0.1804580846E+00      0.3356452098E+00
          0                 8           2             5    8     1       0.1576281263E-02       5    8    1         0.8469998558E-01      0.1510260023E+00
          0                 9           2             5    8     1       0.7374427406E-03       5    8    1         0.3968069352E-01      0.6805992214E-01
          0                10           2             5    8     1       0.3444702321E-03       5    8    1         0.1855860789E-01      0.3071618258E-01
                                                   Max.-Head-Change                         Max.-Flux-Residual
  Residual-Control   Outer-Iter.   Inner-Iter.     Column Row Layer    Maximum-Head-Change  Column Row Layer    Maximum-Flux-Residual          L2-NORM 
          0                11           2             5    8     1       0.1606821171E-03       5    8    1         0.8666678051E-02      0.1388176905E-01
          0                12           1             5    8     1       0.7485690893E-04       5    8    1         0.4041692015E-02      0.6281865240E-02

    ------------------------------------------------
       NWT REQUIRED           12 OUTER ITERATIONS 
       AND A TOTAL OF         23 INNER ITERATIONS.
    ------------------------------------------------

 NO OUTPUT CONTROL FOR STRESS PERIOD   18   TIME STEP   30



 STREAM LISTING     PERIOD     18   STEP       30

 LAYER ROW COL. STREAM  RCH.  FLOW INTO     FLOW TO   FLOW OUT OF   OVRLND.     DIRECT     STREAM       STREAM     STREAM     STREAM   STREAMBED  STREAMBED
                SEG.NO.  NO.  STRM. RCH.    AQUIFER    STRM. RCH.    RUNOFF     PRECIP       ET          HEAD       DEPTH      WIDTH   CONDCTNC.   GRADIENT

   1    1    1     1     1    2.3625E+01  2.3872E-01   2.3387E+01  0.000E+00  0.000E+00  0.000E+00  1.09421E+03  1.157E+00  1.276E+01  5.742E-02  1.386E+00
   1    2    2     1     2    2.3387E+01  3.6909E-01   2.3018E+01  0.000E+00  0.000E+00  0.000E+00  1.08921E+03  1.153E+00  1.270E+01  8.888E-02  1.384E+00
   1    3    3     1     3    2.3018E+01  3.1418E-01   2.2703E+01  0.000E+00  0.000E+00  0.000E+00  1.08357E+03  1.147E+00  1.263E+01  7.575E-02  1.382E+00
   1    3    4     1     4    2.2703E+01  2.8882E-01   2.2415E+01  0.000E+00  0.000E+00  0.000E+00  1.07855E+03  1.143E+00  1.256E+01  6.972E-02  1.381E+00
   1    4    5     2     1    2.0415E+01  3.1702E-01   2.0098E+01  0.000E+00  0.000E+00  0.000E+00  1.07300E+03  1.064E+00  1.200E+01  7.800E-02  1.355E+00
   1    5    6     2     2    2.0098E+01  2.4333E-01   1.9854E+01  0.000E+00  0.000E+00  0.000E+00  1.06756E+03  1.055E+00  1.200E+01  6.000E-02  1.352E+00
   1    6    6     2     3    1.9854E+01  2.4286E-01   1.9611E+01  0.000E+00  0.000E+00  0.000E+00  1.06284E+03  1.048E+00  1.200E+01  6.000E-02  1.349E+00
   1    7    6     2     4    1.9611E+01  2.4240E-01   1.9369E+01  0.000E+00  0.000E+00  0.000E+00  1.05812E+03  1.040E+00  1.200E+01  6.000E-02  1.347E+00
   1    8    6     2     5    1.9369E+01  2.4193E-01   1.9127E+01  0.000E+00  0.000E+00  0.000E+00  1.05339E+03  1.032E+00  1.200E+01  6.000E-02  1.344E+00
   1    3    5     3     1    2.0000E+00  2.8252E-01   1.7175E+00  0.000E+00  0.000E+00  0.000E+00  1.07555E+03  1.909E+00  9.636E+00  7.227E-02  1.955E+00
   1    3    6     3     2    1.7175E+00  2.4905E-01   1.4684E+00  0.000E+00  0.000E+00  0.000E+00  1.07264E+03  1.727E+00  8.909E+00  6.682E-02  1.864E+00
   1    3    7     3     3    1.4684E+00  1.9718E-01   1.2712E+00  0.000E+00  0.000E+00  0.000E+00  1.06987E+03  1.555E+00  8.218E+00  5.547E-02  1.777E+00
   1    4    8     3     4    1.2712E+00  2.2567E-01   1.0456E+00  0.000E+00  0.000E+00  0.000E+00  1.06682E+03  1.364E+00  7.455E+00  6.709E-02  1.682E+00
   1    5    8     3     5    1.0456E+00  1.5790E-01   8.8768E-01  0.000E+00  0.000E+00  0.000E+00  1.06362E+03  1.164E+00  6.655E+00  4.991E-02  1.582E+00
   1    6    8     3     6    8.8768E-01  5.5980E-02   8.3170E-01  0.000E+00  0.000E+00  0.000E+00  1.06158E+03  1.036E+00  6.145E+00  1.844E-02  1.518E+00
   1    5   10     4     1    1.0000E+01  9.0919E-02   9.9091E+00  0.000E+00  0.000E+00  0.000E+00  1.07836E+03  6.368E-01  1.000E+01  2.500E-02  1.212E+00
   1    5    9     4     2    9.9091E+00  1.8158E-01   9.7275E+00  0.000E+00  0.000E+00  0.000E+00  1.07154E+03  6.315E-01  1.000E+01  5.000E-02  1.211E+00
   1    6    8     4     3    9.7275E+00  1.2689E-01   9.6006E+00  0.000E+00  0.000E+00  0.000E+00  1.06381E+03  6.256E-01  1.000E+01  3.500E-02  1.209E+00
   1    6    8     5     1    1.0432E+01  2.2686E-01   1.0205E+01  0.000E+00  0.000E+00  0.000E+00  1.05868E+03  6.790E-01  1.542E+01  6.166E-02  1.226E+00
   1    7    7     5     2    1.0205E+01  2.7894E-01   9.9265E+00  0.000E+00  0.000E+00  0.000E+00  1.05417E+03  6.732E-01  1.519E+01  7.594E-02  1.224E+00
   1    8    7     5     3    9.9265E+00  1.9221E-01   9.7343E+00  0.000E+00  0.000E+00  0.000E+00  1.04992E+03  6.676E-01  1.497E+01  5.241E-02  1.223E+00
   1    8    6     5     4    9.7343E+00  1.3577E-01   9.5985E+00  0.000E+00  0.000E+00  0.000E+00  1.04691E+03  6.637E-01  1.482E+01  3.706E-02  1.221E+00
   1    9    6     6     1    2.8726E+01  2.5942E-01   2.8466E+01  0.000E+00  0.000E+00  0.000E+00  1.04405E+03  1.324E+00  1.200E+01  6.000E-02  1.441E+00
   1   10    7     6     2    2.8466E+01  2.5898E-01   2.8207E+01  0.000E+00  0.000E+00  0.000E+00  1.03950E+03  1.316E+00  1.200E+01  6.000E-02  1.439E+00
   1   11    7     6     3    2.8207E+01  2.5855E-01   2.7949E+01  0.000E+00  0.000E+00  0.000E+00  1.03495E+03  1.309E+00  1.200E+01  6.000E-02  1.436E+00
   1   12    7     6     4    2.7949E+01  2.5811E-01   2.7690E+01  0.000E+00  0.000E+00  0.000E+00  1.03039E+03  1.302E+00  1.200E+01  6.000E-02  1.434E+00
   1   13    7     6     5    2.7690E+01  1.6378E-02   2.7674E+01  0.000E+00  0.000E+00  0.000E+00  1.02721E+03  1.298E+00  1.200E+01  2.400E-02  2.275E-01
   1   14    9     7     1    1.5000E+02  1.3800E+00   1.4862E+02  0.000E+00  0.000E+00  0.000E+00  1.03987E+03  2.288E+00  5.529E+01  5.593E-01  8.225E-01
   1   13    8     7     2    1.4862E+02  2.0019E+00   1.4662E+02  0.000E+00  0.000E+00  0.000E+00  1.03478E+03  2.279E+00  5.525E+01  6.147E-01  1.085E+00
   1   13    7     7     3    1.4662E+02  1.7662E+00   1.4485E+02  0.000E+00  0.000E+00  0.000E+00  1.02969E+03  2.269E+00  5.521E+01  5.584E-01  1.054E+00
   1   13    6     8     1    1.7253E+02  1.2151E+00   1.7131E+02  0.000E+00  0.000E+00  0.000E+00  1.02484E+03  2.965E+00  4.299E+01  4.381E-01  9.246E-01
   1   13    5     8     2    1.7131E+02  4.3412E-01   1.7088E+02  0.000E+00  0.000E+00  0.000E+00  1.01858E+03  2.959E+00  4.291E+01  4.373E-01  3.309E-01
   1   13    4     8     3    1.7088E+02 -1.5619E+00   1.7244E+02  0.000E+00  0.000E+00  0.000E+00  1.01234E+03  2.963E+00  4.296E+01  4.378E+00 -1.189E-01
   1   13    3     8     4    1.7244E+02 -3.1971E+00   1.7564E+02  0.000E+00  0.000E+00  0.000E+00  1.00610E+03  2.978E+00  4.319E+01  4.401E+00 -2.422E-01
   1   13    2     8     5    1.7564E+02 -2.4248E+00   1.7806E+02  0.000E+00  0.000E+00  0.000E+00  9.99871E+02  2.996E+00  4.345E+01  4.427E+00 -1.826E-01
   1   13    1     8     6    1.7806E+02 -1.9359E+00   1.8000E+02  0.000E+00  0.000E+00  0.000E+00  9.94885E+02  3.010E+00  4.365E+01  2.669E+00 -2.418E-01
   1    8    6     9     1    2.6558E-06  0.0000E+00   2.6558E-06  0.000E+00  0.000E+00  0.000E+00  1.07875E+03  2.438E-04  4.000E+00  0.000E+00  1.000E+00
   1    8    5     9     2    2.6558E-06  0.0000E+00   2.6558E-06  0.000E+00  0.000E+00  0.000E+00  1.07825E+03  2.438E-04  4.000E+00  0.000E+00  1.000E+00





UNSATURATED ZONE PACKAGE VOLUMETRIC BUDGET FOR  TIME STEP    30 STRESS PERIOD   18
  ------------------------------------------------------------------------------



     CUMULATIVE VOLUMES      L**3       RATES FOR THIS TIME STEP      L**3/T
     ------------------                 ------------------------

           IN:                                      IN:
           ---                                      ---
        INFILTRATION =  3771942286.9283          INFILTRATION =           0.8475

          OUT:                                     OUT:
          ----                                     ----
              UZF ET =   471184215.6118                UZF ET =           8.3175
        UZF RECHARGE =  2532201183.2373          UZF RECHARGE =         147.4894

            IN - OUT =   768556888.0792              IN - OUT =        -154.9594

          STORAGE:                                 STORAGE:
          --------                                 --------
      STORAGE CHANGE =   769241272.6464        STORAGE CHANGE =        -154.9594

 PERCENT DISCREPANCY IS DIFFERENCE BETWEEN IN-OUT MINUS CHANGE IN STORAGE
 DIVIDED BY THE AVERAGE OF IN AND OUT TIMES 100

 PERCENT DISCREPANCY =          -0.00     PERCENT DISCREPANCY =           0.00






1
  VOLUMETRIC BUDGET FOR AGRICULTURAL FIELDS AT  END OF TIME STEP   30, STRESS PERIOD  18
  ------------------------------------------------------------------------------

     CUMULATIVE VOLUMES      L**3       RATES FOR THIS TIME STEP      L**3/T
     ------------------                 ------------------------

           IN:                                      IN:
           ---                                      ---
               AG WELLS  =  3529042432.0000                 AG WELLS  =       2.2132E-07
      DIVERSION SEGMENTS =   204968064.0000        DIVERSION SEGMENTS =       2.6558E-06
           GW IRRIGATION =           0.0000             GW IRRIGATION =           0.0000
           SW IRRIGATION =           0.0000             SW IRRIGATION =           0.0000
        SYSTEM LOSSES GW =           0.0000          SYSTEM LOSSES GW =           0.0000
        SYSTEM LOSSES SW =           0.0000          SYSTEM LOSSES SW =           0.0000

                TOTAL IN =  3734010368.0000                  TOTAL IN =       2.8772E-06

          OUT:                                     OUT:
          ----                                     ----
               AG WELLS  =           0.0000                 AG WELLS  =           0.0000
      DIVERSION SEGMENTS =           0.0000        DIVERSION SEGMENTS =           0.0000
           GW IRRIGATION =  3529042432.0000             GW IRRIGATION =       2.2132E-07
           SW IRRIGATION =   204972096.0000             SW IRRIGATION =       2.6559E-06
        SYSTEM LOSSES GW =           0.0000          SYSTEM LOSSES GW =           0.0000
        SYSTEM LOSSES SW =           0.0000          SYSTEM LOSSES SW =           0.0000

               TOTAL OUT =  3734014464.0000                 TOTAL OUT =       2.8772E-06

                IN - OUT =       -4096.0000                  IN - OUT =      -5.2978E-11

     PERCENT DISCREPANCY =          -0.00         PERCENT DISCREPANCY =          -0.00



1
  VOLUMETRIC BUDGET FOR ENTIRE MODEL AT END OF TIME STEP   30, STRESS PERIOD  18
  ------------------------------------------------------------------------------

     CUMULATIVE VOLUMES      L**3       RATES FOR THIS TIME STEP      L**3/T
     ------------------                 ------------------------

           IN:                                      IN:
           ---                                      ---
             STORAGE     =  3880108032.0000               STORAGE     =          25.3801
       CONSTANT HEAD     =           0.0000         CONSTANT HEAD     =           0.0000
     HEAD DEP BOUNDS     =    12905322.0000       HEAD DEP BOUNDS     =           0.2888
      STREAM LEAKAGE     =   537281536.0000        STREAM LEAKAGE     =          12.7486
        UZF RECHARGE     =  2532198656.0000          UZF RECHARGE     =         147.4894
               GW ET     =           0.0000                 GW ET     =           0.0000
     SURFACE LEAKAGE     =           0.0000       SURFACE LEAKAGE     =           0.0000
           AG WELLS      =           0.0000             AG WELLS      =           0.0000

                TOTAL IN =  6962493440.0000                  TOTAL IN =         185.9069

          OUT:                                     OUT:
          ----                                     ----
             STORAGE     =  2978863872.0000               STORAGE     =         176.4924
       CONSTANT HEAD     =           0.0000         CONSTANT HEAD     =           0.0000
     HEAD DEP BOUNDS     =    12912178.0000       HEAD DEP BOUNDS     =           0.2892
      STREAM LEAKAGE     =   441617088.0000        STREAM LEAKAGE     =           9.1197
        UZF RECHARGE     =           0.0000          UZF RECHARGE     =           0.0000
               GW ET     =           0.0000                 GW ET     =           0.0000
     SURFACE LEAKAGE     =           0.0000       SURFACE LEAKAGE     =           0.0000
           AG WELLS      =  3529042432.0000             AG WELLS      =       2.2132E-07

               TOTAL OUT =  6962435584.0000                 TOTAL OUT =         185.9013

                IN - OUT =       57856.0000                  IN - OUT =       5.5542E-03

     PERCENT DISCREPANCY =           0.00         PERCENT DISCREPANCY =           0.00






         TIME SUMMARY AT END OF TIME STEP   30 IN STRESS PERIOD   18
                    SECONDS     MINUTES      HOURS       DAYS        YEARS
                    -----------------------------------------------------------
   TIME STEP LENGTH  87667.      1461.1      24.352      1.0147     2.77799E-03
 STRESS PERIOD TIME 2.63000E+06  43833.      730.56      30.440     8.33397E-02
         TOTAL TIME 4.47965E+07 7.46608E+05  12443.      518.48      1.4195    
1
1
                            STRESS PERIOD NO.   19, LENGTH =   2630000.    
                            -----------------------------------------------

                              NUMBER OF TIME STEPS =    30

                               MULTIPLIER FOR DELT =     1.000

                            INITIAL TIME STEP SIZE =   87666.66    

 REUSING NON-PARAMETER GHB CELLS FROM LAST STRESS PERIOD

      2 GHB CELLS

 REUSING STREAM SEGMENT DATA FROM LAST STRESS PERIOD



            AREAL INFILTRATION RATE
 READING ON UNIT   19 WITH FORMAT: (FREE)              

            1           2           3           4           5           6           7           8           9          10
 ........................................................................................................................
   1   1.0000E-10  2.0000E-10   0.000       0.000       0.000       0.000       0.000       0.000       0.000       0.000    
   2   2.0000E-10  1.0000E-10  2.0000E-10   0.000       0.000      8.0000E-10  8.0000E-10  5.0000E-10   0.000       0.000    
   3    0.000      5.0000E-10  1.0000E-10  1.0000E-10  8.0000E-10  8.0000E-10  5.0000E-10  5.0000E-10   0.000       0.000    
   4   8.0000E-10  5.0000E-10  1.0000E-10  1.0000E-10  1.0000E-10  1.0000E-10  1.0000E-10  1.0000E-10  2.0000E-10   0.000    
   5   8.0000E-10  5.0000E-10  1.0000E-10  1.0000E-10  1.0000E-10  1.0000E-10  1.0000E-10  1.0000E-10  1.0000E-10  1.0000E-10
   6   8.0000E-10  5.0000E-10  5.0000E-10  2.0000E-10  2.0000E-10  1.0000E-10  1.0000E-10  1.0000E-10  1.0000E-10  5.0000E-10
   7   8.0000E-10  5.0000E-10  5.0000E-10  2.0000E-10  2.0000E-10  1.0000E-10  1.0000E-10  2.0000E-10  2.0000E-10   0.000    
   8    0.000      5.0000E-10  5.0000E-10  2.0000E-10  2.0000E-10  1.0000E-10  1.0000E-10  2.0000E-10  5.0000E-10   0.000    
   9    0.000      5.0000E-10  5.0000E-10  2.0000E-10  2.0000E-10  1.0000E-10  1.0000E-10  2.0000E-10  5.0000E-10   0.000    
  10    0.000      5.0000E-10  5.0000E-10  2.0000E-10  2.0000E-10  1.0000E-10  1.0000E-10  2.0000E-10  5.0000E-10  8.0000E-10
  11    0.000      1.0000E-10  1.0000E-10  1.0000E-10  1.0000E-10  1.0000E-10  1.0000E-10  2.0000E-10  5.0000E-10   0.000    
  12   1.0000E-10  1.0000E-10  1.0000E-10  1.0000E-10  1.0000E-10  1.0000E-10  1.0000E-10  1.0000E-10  2.0000E-10   0.000    
  13   1.0000E-10  1.0000E-10  2.0000E-10  2.0000E-10  2.0000E-10  2.0000E-10  2.0000E-10  1.0000E-10  1.0000E-10   0.000    
  14    0.000      2.0000E-10  5.0000E-10  5.0000E-10  5.0000E-10  5.0000E-10  5.0000E-10  2.0000E-10  1.0000E-10   0.000    
  15    0.000       0.000      8.0000E-10  8.0000E-10  8.0000E-10  8.0000E-10   0.000       0.000       0.000       0.000    

                  ET RATE =  1.500000E-07

 USING ET EXTINCTION DEPTH FROM PREVIOUS STRESS PERIOD. CURRENT PERIOD IS:      19

 USING EXTINCTION WATER CONTENT FROM PREVIOUS STRESS PERIOD. CURRENT PERIOD IS:      19

 USING AIR ENTRY PRESSURE FROM PREVIOUS STRESS PERIOD. CURRENT PERIOD IS:      19

 USING ROOT PRESSURE HEAD FROM PREVIOUS STRESS PERIOD. CURRENT PERIOD IS:      19

 USING ROOT ACTIVITY FROM PREVIOUS STRESS PERIOD. CURRENT PERIOD IS:      19

 PROCESSING AG STRESS PERIOD DATA

 READING AG STRESS PERIOD DATA

 READING IRRIGATION SEGMENT

 READING IRRIGATION WELL

 READING SUPPLEMENTAL WELL

 END PROCESSING AG STRESS PERIOD DATA OPTIONS
 
 SOLVING FOR HEAD 
                                                   Max.-Head-Change                         Max.-Flux-Residual
  Residual-Control   Outer-Iter.   Inner-Iter.     Column Row Layer    Maximum-Head-Change  Column Row Layer    Maximum-Flux-Residual          L2-NORM 
          0                 1           2             5    7     1       0.3939463644E+00       5    7    1         0.2108976766E+02      0.3968374279E+02
          0                 2           2             4    7     1      -0.1873035212E+01       4    7    1        -0.1008063268E+03      0.2307492327E+03
          0                 3           2             5    8     1      -0.3729348982E+00       5    8    1        -0.2063085526E+02      0.3885814026E+02
          0                 4           2             5    8     1       0.2539710576E-01       5    8    1         0.1444240054E+01      0.2688867849E+01
          0                 5           2             5    8     1      -0.1010823769E-02       5    8    1        -0.5908409768E-01      0.1092979772E+00
          0                 6           1             5    8     1       0.1247313295E-04       5    8    1         0.7493326229E-03      0.1387428988E-02

    ------------------------------------------------
       NWT REQUIRED            6 OUTER ITERATIONS 
       AND A TOTAL OF         11 INNER ITERATIONS.
    ------------------------------------------------

 OUTPUT CONTROL FOR STRESS PERIOD   19   TIME STEP    1
    PRINT BUDGET
    SAVE BUDGET
 UBDSV1 SAVING "         STORAGE" ON UNIT 102 AT TIME STEP  1, STRESS PERIOD  19
 UBDSV2 SAVING "   CONSTANT HEAD" ON UNIT 102 AT TIME STEP  1, STRESS PERIOD  19
 UBDSV1 SAVING "FLOW RIGHT FACE " ON UNIT 102 AT TIME STEP  1, STRESS PERIOD  19
 UBDSV1 SAVING "FLOW FRONT FACE " ON UNIT 102 AT TIME STEP  1, STRESS PERIOD  19

  HEAD DEP BOUNDS   PERIOD   19   STEP     1
 BOUNDARY      1   LAYER   1   ROW    13   COL     1   RATE   -0.289070    
 BOUNDARY      2   LAYER   1   ROW    14   COL     9   RATE    0.288775    



 STREAM LISTING     PERIOD     19   STEP        1

 LAYER ROW COL. STREAM  RCH.  FLOW INTO     FLOW TO   FLOW OUT OF   OVRLND.     DIRECT     STREAM       STREAM     STREAM     STREAM   STREAMBED  STREAMBED
                SEG.NO.  NO.  STRM. RCH.    AQUIFER    STRM. RCH.    RUNOFF     PRECIP       ET          HEAD       DEPTH      WIDTH   CONDCTNC.   GRADIENT

   1    1    1     1     1    2.1826E+01  2.3002E-01   2.1596E+01  0.000E+00  0.000E+00  0.000E+00  1.09418E+03  1.129E+00  1.238E+01  5.571E-02  1.376E+00
   1    2    2     1     2    2.1596E+01  3.5556E-01   2.1240E+01  0.000E+00  0.000E+00  0.000E+00  1.08918E+03  1.124E+00  1.232E+01  8.622E-02  1.375E+00
   1    3    3     1     3    2.1240E+01  3.0257E-01   2.0938E+01  0.000E+00  0.000E+00  0.000E+00  1.08354E+03  1.119E+00  1.224E+01  7.347E-02  1.373E+00
   1    3    4     1     4    2.0938E+01  2.7808E-01   2.0660E+01  0.000E+00  0.000E+00  0.000E+00  1.07852E+03  1.114E+00  1.218E+01  6.760E-02  1.371E+00
   1    4    5     2     1    1.8660E+01  3.1263E-01   1.8347E+01  0.000E+00  0.000E+00  0.000E+00  1.07294E+03  1.008E+00  1.200E+01  7.800E-02  1.336E+00
   1    5    6     2     2    1.8347E+01  2.3994E-01   1.8107E+01  0.000E+00  0.000E+00  0.000E+00  1.06751E+03  9.990E-01  1.200E+01  6.000E-02  1.333E+00
   1    6    6     2     3    1.8107E+01  2.3947E-01   1.7868E+01  0.000E+00  0.000E+00  0.000E+00  1.06278E+03  9.911E-01  1.200E+01  6.000E-02  1.330E+00
   1    7    6     2     4    1.7868E+01  2.3899E-01   1.7629E+01  0.000E+00  0.000E+00  0.000E+00  1.05806E+03  9.832E-01  1.200E+01  6.000E-02  1.328E+00
   1    8    6     2     5    1.7629E+01  2.3851E-01   1.7390E+01  0.000E+00  0.000E+00  0.000E+00  1.05333E+03  9.752E-01  1.200E+01  6.000E-02  1.325E+00
   1    3    5     3     1    2.0000E+00  2.8252E-01   1.7175E+00  0.000E+00  0.000E+00  0.000E+00  1.07555E+03  1.909E+00  9.636E+00  7.227E-02  1.955E+00
   1    3    6     3     2    1.7175E+00  2.4905E-01   1.4684E+00  0.000E+00  0.000E+00  0.000E+00  1.07264E+03  1.727E+00  8.909E+00  6.682E-02  1.864E+00
   1    3    7     3     3    1.4684E+00  1.9718E-01   1.2712E+00  0.000E+00  0.000E+00  0.000E+00  1.06987E+03  1.555E+00  8.218E+00  5.547E-02  1.777E+00
   1    4    8     3     4    1.2712E+00  2.2567E-01   1.0456E+00  0.000E+00  0.000E+00  0.000E+00  1.06682E+03  1.364E+00  7.455E+00  6.709E-02  1.682E+00
   1    5    8     3     5    1.0456E+00  1.5790E-01   8.8768E-01  0.000E+00  0.000E+00  0.000E+00  1.06362E+03  1.164E+00  6.655E+00  4.991E-02  1.582E+00
   1    6    8     3     6    8.8768E-01  5.5980E-02   8.3170E-01  0.000E+00  0.000E+00  0.000E+00  1.06158E+03  1.036E+00  6.145E+00  1.844E-02  1.518E+00
   1    5   10     4     1    1.0000E+01  9.0919E-02   9.9091E+00  0.000E+00  0.000E+00  0.000E+00  1.07836E+03  6.368E-01  1.000E+01  2.500E-02  1.212E+00
   1    5    9     4     2    9.9091E+00  1.8158E-01   9.7275E+00  0.000E+00  0.000E+00  0.000E+00  1.07154E+03  6.315E-01  1.000E+01  5.000E-02  1.211E+00
   1    6    8     4     3    9.7275E+00  1.2689E-01   9.6006E+00  0.000E+00  0.000E+00  0.000E+00  1.06381E+03  6.256E-01  1.000E+01  3.500E-02  1.209E+00
   1    6    8     5     1    1.0432E+01  2.2686E-01   1.0205E+01  0.000E+00  0.000E+00  0.000E+00  1.05868E+03  6.790E-01  1.542E+01  6.166E-02  1.226E+00
   1    7    7     5     2    1.0205E+01  2.7894E-01   9.9265E+00  0.000E+00  0.000E+00  0.000E+00  1.05417E+03  6.732E-01  1.519E+01  7.594E-02  1.224E+00
   1    8    7     5     3    9.9265E+00  1.9221E-01   9.7343E+00  0.000E+00  0.000E+00  0.000E+00  1.04992E+03  6.676E-01  1.497E+01  5.241E-02  1.223E+00
   1    8    6     5     4    9.7343E+00  1.3577E-01   9.5985E+00  0.000E+00  0.000E+00  0.000E+00  1.04691E+03  6.637E-01  1.482E+01  3.706E-02  1.221E+00
   1    9    6     6     1    9.5985E+00  2.2097E-01   9.3776E+00  0.000E+00  0.000E+00  0.000E+00  1.04341E+03  6.828E-01  1.200E+01  6.000E-02  1.228E+00
   1   10    7     6     2    9.3776E+00  2.2039E-01   9.1572E+00  0.000E+00  0.000E+00  0.000E+00  1.03885E+03  6.732E-01  1.200E+01  6.000E-02  1.224E+00
   1   11    7     6     3    9.1572E+00  2.1981E-01   8.9374E+00  0.000E+00  0.000E+00  0.000E+00  1.03430E+03  6.636E-01  1.200E+01  6.000E-02  1.221E+00
   1   12    7     6     4    8.9374E+00  2.1923E-01   8.7181E+00  0.000E+00  0.000E+00  0.000E+00  1.02974E+03  6.539E-01  1.200E+01  6.000E-02  1.218E+00
   1   13    7     6     5    8.7181E+00  8.1059E-04   8.7173E+00  0.000E+00  0.000E+00  0.000E+00  1.02656E+03  6.490E-01  1.200E+01  2.400E-02  1.126E-02
   1   14    9     7     1    1.5000E+02  1.3801E+00   1.4862E+02  0.000E+00  0.000E+00  0.000E+00  1.03987E+03  2.288E+00  5.529E+01  5.593E-01  8.225E-01
   1   13    8     7     2    1.4862E+02  2.0021E+00   1.4662E+02  0.000E+00  0.000E+00  0.000E+00  1.03478E+03  2.279E+00  5.525E+01  6.147E-01  1.086E+00
   1   13    7     7     3    1.4662E+02  1.7664E+00   1.4485E+02  0.000E+00  0.000E+00  0.000E+00  1.02969E+03  2.269E+00  5.521E+01  5.584E-01  1.055E+00
   1   13    6     8     1    1.5357E+02  1.1107E+00   1.5246E+02  0.000E+00  0.000E+00  0.000E+00  1.02471E+03  2.838E+00  4.115E+01  4.193E-01  8.829E-01
   1   13    5     8     2    1.5246E+02  3.6310E-01   1.5209E+02  0.000E+00  0.000E+00  0.000E+00  1.01846E+03  2.833E+00  4.108E+01  4.186E-01  2.892E-01
   1   13    4     8     3    1.5209E+02 -1.9923E+00   1.5409E+02  0.000E+00  0.000E+00  0.000E+00  1.01221E+03  2.838E+00  4.116E+01  4.194E+00 -1.583E-01
   1   13    3     8     4    1.5409E+02 -3.5548E+00   1.5764E+02  0.000E+00  0.000E+00  0.000E+00  1.00598E+03  2.858E+00  4.144E+01  4.222E+00 -2.806E-01
   1   13    2     8     5    1.5764E+02 -2.8033E+00   1.6045E+02  0.000E+00  0.000E+00  0.000E+00  9.99754E+02  2.879E+00  4.175E+01  4.255E+00 -2.196E-01
   1   13    1     8     6    1.6045E+02 -2.1465E+00   1.6259E+02  0.000E+00  0.000E+00  0.000E+00  9.94771E+02  2.896E+00  4.199E+01  2.568E+00 -2.787E-01
   1    8    6     9     1    1.7390E+01  0.0000E+00   1.7390E+01  0.000E+00  0.000E+00  0.000E+00  1.08191E+03  3.158E+00  4.000E+00  0.000E+00  2.053E+00
   1    8    5     9     2    1.7390E+01  0.0000E+00   1.7390E+01  0.000E+00  0.000E+00  0.000E+00  1.08141E+03  3.158E+00  4.000E+00  0.000E+00  2.053E+00



 UBDSV3 SAVING "           GW ET" ON UNIT  61 AT TIME STEP  1, STRESS PERIOD  19
 UBDSV3 SAVING "    UZF RECHARGE" ON UNIT  61 AT TIME STEP  1, STRESS PERIOD  19
 UBDSV3 SAVING " SURFACE LEAKAGE" ON UNIT  61 AT TIME STEP  1, STRESS PERIOD  19
 UBDSV3 SAVING "       HORT+DUNN" ON UNIT  61 AT TIME STEP  1, STRESS PERIOD  19
 UBDSV3 SAVING "  STORAGE CHANGE" ON UNIT  61 AT TIME STEP  1, STRESS PERIOD  19


UNSATURATED ZONE PACKAGE VOLUMETRIC BUDGET FOR  TIME STEP     1 STRESS PERIOD   19
  ------------------------------------------------------------------------------



     CUMULATIVE VOLUMES      L**3       RATES FOR THIS TIME STEP      L**3/T
     ------------------                 ------------------------

           IN:                                      IN:
           ---                                      ---
        INFILTRATION =  3826141142.4242          INFILTRATION =         618.2379

          OUT:                                     OUT:
          ----                                     ----
              UZF ET =   473228383.1077                UZF ET =          23.3175
        UZF RECHARGE =  2532201183.2373          UZF RECHARGE =       0.0000E+00

            IN - OUT =   820711576.0792              IN - OUT =         594.9204

          STORAGE:                                 STORAGE:
          --------                                 --------
      STORAGE CHANGE =   821395960.7010        STORAGE CHANGE =         594.9204

 PERCENT DISCREPANCY IS DIFFERENCE BETWEEN IN-OUT MINUS CHANGE IN STORAGE
 DIVIDED BY THE AVERAGE OF IN AND OUT TIMES 100

 PERCENT DISCREPANCY =          -0.00     PERCENT DISCREPANCY =           0.00






 

            AG WELLS      PERIOD   19   STEP   1
 AG WELL      1   LAYER   1   ROW     6   COL     4   RATE    -100.000    
 AG WELL      2   LAYER   1   ROW     6   COL     5   RATE    -100.000    
 AG WELL      3   LAYER   1   ROW     7   COL     4   RATE    -100.000    
 AG WELL      4   LAYER   1   ROW     7   COL     5   RATE    -100.000    
 AG WELL      5   LAYER   1   ROW     8   COL     4   RATE    -100.000    
 AG WELL      6   LAYER   1   ROW     8   COL     5   RATE    -100.000    
 
 

   DIVERSION SEGMENTS     PERIOD   19   STEP   1
 SEGMENT      9   RATE     17.3901    
 
 

        SW IRRIGATION     PERIOD   19   STEP   1
 SEGMENT      9   ROW     6   COL     4   RATE     2.89841    
 SEGMENT      9   ROW     6   COL     5   RATE     2.89841    
 SEGMENT      9   ROW     7   COL     4   RATE     2.89841    
 SEGMENT      9   ROW     7   COL     5   RATE     2.89841    
 SEGMENT      9   ROW     8   COL     4   RATE     2.89841    
 SEGMENT      9   ROW     8   COL     5   RATE     2.89841    
 
 

        GW IRRIGATION     PERIOD   19   STEP   1
 AG WELL      1   ROW     6   COL     4   RATE     100.000    
 AG WELL      2   ROW     6   COL     5   RATE     100.000    
 AG WELL      3   ROW     7   COL     4   RATE     100.000    
 AG WELL      4   ROW     7   COL     5   RATE     100.000    
 AG WELL      5   ROW     8   COL     4   RATE     100.000    
 AG WELL      6   ROW     8   COL     5   RATE     100.000    
 
1
  VOLUMETRIC BUDGET FOR AGRICULTURAL FIELDS AT  END OF TIME STEP    1, STRESS PERIOD  19
  ------------------------------------------------------------------------------

     CUMULATIVE VOLUMES      L**3       RATES FOR THIS TIME STEP      L**3/T
     ------------------                 ------------------------

           IN:                                      IN:
           ---                                      ---
               AG WELLS  =  3581642496.0000                 AG WELLS  =         600.0000
      DIVERSION SEGMENTS =   206492592.0000        DIVERSION SEGMENTS =          17.3901
           GW IRRIGATION =           0.0000             GW IRRIGATION =           0.0000
           SW IRRIGATION =           0.0000             SW IRRIGATION =           0.0000
        SYSTEM LOSSES GW =           0.0000          SYSTEM LOSSES GW =           0.0000
        SYSTEM LOSSES SW =           0.0000          SYSTEM LOSSES SW =           0.0000

                TOTAL IN =  3788135168.0000                  TOTAL IN =         617.3901

          OUT:                                     OUT:
          ----                                     ----
               AG WELLS  =           0.0000                 AG WELLS  =           0.0000
      DIVERSION SEGMENTS =           0.0000        DIVERSION SEGMENTS =           0.0000
           GW IRRIGATION =  3581642496.0000             GW IRRIGATION =         600.0000
           SW IRRIGATION =   206496656.0000             SW IRRIGATION =          17.3904
        SYSTEM LOSSES GW =           0.0000          SYSTEM LOSSES GW =           0.0000
        SYSTEM LOSSES SW =           0.0000          SYSTEM LOSSES SW =           0.0000

               TOTAL OUT =  3788139264.0000                 TOTAL OUT =         617.3904

                IN - OUT =       -4096.0000                  IN - OUT =      -3.6621E-04

     PERCENT DISCREPANCY =          -0.00         PERCENT DISCREPANCY =          -0.00



1
  VOLUMETRIC BUDGET FOR ENTIRE MODEL AT END OF TIME STEP    1, STRESS PERIOD  19
  ------------------------------------------------------------------------------

     CUMULATIVE VOLUMES      L**3       RATES FOR THIS TIME STEP      L**3/T
     ------------------                 ------------------------

           IN:                                      IN:
           ---                                      ---
             STORAGE     =  3932561920.0000               STORAGE     =         598.3335
       CONSTANT HEAD     =           0.0000         CONSTANT HEAD     =           0.0000
     HEAD DEP BOUNDS     =    12930638.0000       HEAD DEP BOUNDS     =           0.2888
      STREAM LEAKAGE     =   538363392.0000        STREAM LEAKAGE     =          12.3409
        UZF RECHARGE     =  2532198656.0000          UZF RECHARGE     =           0.0000
               GW ET     =           0.0000                 GW ET     =           0.0000
     SURFACE LEAKAGE     =           0.0000       SURFACE LEAKAGE     =           0.0000
           AG WELLS      =           0.0000             AG WELLS      =           0.0000

                TOTAL IN =  7016054784.0000                  TOTAL IN =         610.9631

          OUT:                                     OUT:
          ----                                     ----
             STORAGE     =  2978879488.0000               STORAGE     =           0.1771
       CONSTANT HEAD     =           0.0000         CONSTANT HEAD     =           0.0000
     HEAD DEP BOUNDS     =    12937520.0000       HEAD DEP BOUNDS     =           0.2891
      STREAM LEAKAGE     =   442537312.0000        STREAM LEAKAGE     =          10.4969
        UZF RECHARGE     =           0.0000          UZF RECHARGE     =           0.0000
               GW ET     =           0.0000                 GW ET     =           0.0000
     SURFACE LEAKAGE     =           0.0000       SURFACE LEAKAGE     =           0.0000
           AG WELLS      =  3581642496.0000             AG WELLS      =         600.0000

               TOTAL OUT =  7015996416.0000                 TOTAL OUT =         610.9631

                IN - OUT =       58368.0000                  IN - OUT =           0.0000

     PERCENT DISCREPANCY =           0.00         PERCENT DISCREPANCY =           0.00






         TIME SUMMARY AT END OF TIME STEP    1 IN STRESS PERIOD   19
                    SECONDS     MINUTES      HOURS       DAYS        YEARS
                    -----------------------------------------------------------
   TIME STEP LENGTH  87667.      1461.1      24.352      1.0147     2.77799E-03
 STRESS PERIOD TIME  87667.      1461.1      24.352      1.0147     2.77799E-03
         TOTAL TIME 4.48841E+07 7.48069E+05  12468.      519.49      1.4223    
1
 
 SOLVING FOR HEAD 
                                                   Max.-Head-Change                         Max.-Flux-Residual
  Residual-Control   Outer-Iter.   Inner-Iter.     Column Row Layer    Maximum-Head-Change  Column Row Layer    Maximum-Flux-Residual          L2-NORM 
          0                 1           2             4    6     1       0.1756420241E+00       4    6    1         0.9438197711E+01      0.1858163930E+02
          0                 2           2             4    6     1      -0.1018775383E+00       4    6    1        -0.5557600980E+01      0.1293964578E+02
          0                 3           2             4    6     1       0.6937436736E-02       4    6    1         0.3890292581E+00      0.9057181874E+00
          0                 4           2             4    6     1      -0.2760473156E-03       4    6    1        -0.1591133263E-01      0.3704440962E-01
          0                 5           1             4    6     1       0.3403786080E-05       4    6    1         0.2016455987E-03      0.4704139108E-03

    ------------------------------------------------
       NWT REQUIRED            5 OUTER ITERATIONS 
       AND A TOTAL OF          9 INNER ITERATIONS.
    ------------------------------------------------

 NO OUTPUT CONTROL FOR STRESS PERIOD   19   TIME STEP    2
 
 SOLVING FOR HEAD 
                                                   Max.-Head-Change                         Max.-Flux-Residual
  Residual-Control   Outer-Iter.   Inner-Iter.     Column Row Layer    Maximum-Head-Change  Column Row Layer    Maximum-Flux-Residual          L2-NORM 
          0                 1           2             4    6     1       0.1715128735E+00       4    6    1         0.9210474696E+01      0.1909560657E+02
          0                 2           2             5    7     1       0.6698865675E-01       5    7    1         0.3664383343E+01      0.5572542051E+01
          0                 3           2             5    7     1       0.2902858338E-01       5    7    1         0.1582264440E+01      0.2342750643E+01
          0                 4           2             5    7     1       0.1258875979E-01       5    7    1         0.6860344014E+00      0.1022558031E+01
          0                 5           2             5    7     1       0.5463399692E-02       5    7    1         0.2975462456E+00      0.4469820275E+00
          0                 6           2             5    7     1       0.2372776838E-02       5    7    1         0.1291501564E+00      0.1955634961E+00
          0                 7           2             5    7     1       0.1031229873E-02       5    7    1         0.5609801164E-01      0.8563340701E-01
          0                 8           2             5    7     1       0.4484865434E-03       5    7    1         0.2438387170E-01      0.3752601778E-01
          0                 9           2             5    7     1       0.1951772922E-03       5    7    1         0.1060599558E-01      0.1645632968E-01
          0                10           1             5    7     1       0.8499360776E-04       5    7    1         0.4616197164E-02      0.7221424622E-02

    ------------------------------------------------
       NWT REQUIRED           10 OUTER ITERATIONS 
       AND A TOTAL OF         19 INNER ITERATIONS.
    ------------------------------------------------

 NO OUTPUT CONTROL FOR STRESS PERIOD   19   TIME STEP    3
 
 SOLVING FOR HEAD 
     PET DIFF ERROR     6    4    0.2245498963E-08    0.1500000053E-06
     PET DIFF ERROR     6    5    0.2245492323E-08    0.1500000053E-06
     PET DIFF ERROR     7    4    0.2245498899E-08    0.1500000053E-06
     PET DIFF ERROR     7    5    0.2245498948E-08    0.1500000053E-06
     PET DIFF ERROR     8    4    0.2245498913E-08    0.1500000053E-06
     PET DIFF ERROR     8    5    0.2245498924E-08    0.1500000053E-06
                                                   Max.-Head-Change                         Max.-Flux-Residual
  Residual-Control   Outer-Iter.   Inner-Iter.     Column Row Layer    Maximum-Head-Change  Column Row Layer    Maximum-Flux-Residual          L2-NORM 
          0                 1           2             5    7     1       0.4209496661E+00       5    7    1         0.2251526769E+02      0.4749992451E+02
     PET DIFF ERROR     6    4    0.2245498963E-08    0.1500000053E-06
     PET DIFF ERROR     6    5    0.2245492323E-08    0.1500000053E-06
     PET DIFF ERROR     7    4    0.2245498899E-08    0.1500000053E-06
     PET DIFF ERROR     7    5    0.2245498948E-08    0.1500000053E-06
     PET DIFF ERROR     8    4    0.2245498913E-08    0.1500000053E-06
     PET DIFF ERROR     8    5    0.2245498924E-08    0.1500000053E-06
          0                 2           2             5    7     1       0.1863885983E+00       5    7    1         0.9992419374E+01      0.2054737299E+02
     PET DIFF ERROR     6    4    0.2245498963E-08    0.1500000053E-06
     PET DIFF ERROR     6    5    0.2245492323E-08    0.1500000053E-06
     PET DIFF ERROR     7    4    0.2245498899E-08    0.1500000053E-06
     PET DIFF ERROR     7    5    0.2245498948E-08    0.1500000053E-06
     PET DIFF ERROR     8    4    0.2245498913E-08    0.1500000053E-06
     PET DIFF ERROR     8    5    0.2245498924E-08    0.1500000053E-06
          0                 3           2             5    7     1       0.8251823006E-01       5    7    1         0.4422024827E+01      0.9129989839E+01
     PET DIFF ERROR     6    4    0.2245498963E-08    0.1500000053E-06
     PET DIFF ERROR     6    5    0.2245492323E-08    0.1500000053E-06
     PET DIFF ERROR     7    4    0.2245498899E-08    0.1500000053E-06
     PET DIFF ERROR     7    5    0.2245498948E-08    0.1500000053E-06
     PET DIFF ERROR     8    4    0.2245498913E-08    0.1500000053E-06
     PET DIFF ERROR     8    5    0.2245498924E-08    0.1500000053E-06
          0                 4           2             5    7     1       0.3656789479E-01       5    7    1         0.1957982651E+01      0.4060428591E+01
     PET DIFF ERROR     6    4    0.2245498963E-08    0.1500000053E-06
     PET DIFF ERROR     6    5    0.2245492323E-08    0.1500000053E-06
     PET DIFF ERROR     7    4    0.2245498899E-08    0.1500000053E-06
     PET DIFF ERROR     7    5    0.2245498948E-08    0.1500000053E-06
     PET DIFF ERROR     8    4    0.2245498913E-08    0.1500000053E-06
     PET DIFF ERROR     8    5    0.2245498924E-08    0.1500000053E-06
          0                 5           2             5    7     1       0.1621986259E-01       5    7    1         0.8678424429E+00      0.1807662053E+01
     PET DIFF ERROR     6    4    0.2245498963E-08    0.1500000053E-06
     PET DIFF ERROR     6    5    0.2245492323E-08    0.1500000053E-06
     PET DIFF ERROR     7    4    0.2245498899E-08    0.1500000053E-06
     PET DIFF ERROR     7    5    0.2245498948E-08    0.1500000053E-06
     PET DIFF ERROR     8    4    0.2245498913E-08    0.1500000053E-06
     PET DIFF ERROR     8    5    0.2245498924E-08    0.1500000053E-06
          0                 6           2             5    7     1       0.7200624442E-02       5    7    1         0.3849996353E+00      0.8054345373E+00
     PET DIFF ERROR     6    4    0.2245498963E-08    0.1500000053E-06
     PET DIFF ERROR     6    5    0.2245492323E-08    0.1500000053E-06
     PET DIFF ERROR     7    4    0.2245498899E-08    0.1500000053E-06
     PET DIFF ERROR     7    5    0.2245498948E-08    0.1500000053E-06
     PET DIFF ERROR     8    4    0.2245498913E-08    0.1500000053E-06
     PET DIFF ERROR     8    5    0.2245498924E-08    0.1500000053E-06
          0                 7           2             5    7     1       0.3199251026E-02       5    7    1         0.1709432770E+00      0.3591669477E+00
     PET DIFF ERROR     6    4    0.2245498963E-08    0.1500000053E-06
     PET DIFF ERROR     6    5    0.2245492323E-08    0.1500000053E-06
     PET DIFF ERROR     7    4    0.2245498899E-08    0.1500000053E-06
     PET DIFF ERROR     7    5    0.2245498948E-08    0.1500000053E-06
     PET DIFF ERROR     8    4    0.2245498913E-08    0.1500000053E-06
     PET DIFF ERROR     8    5    0.2245498924E-08    0.1500000053E-06
          0                 8           2             5    7     1       0.1422531291E-02       5    7    1         0.7596172798E-01      0.1602850518E+00
     PET DIFF ERROR     6    4    0.2245498963E-08    0.1500000053E-06
     PET DIFF ERROR     6    5    0.2245492323E-08    0.1500000053E-06
     PET DIFF ERROR     7    4    0.2245498899E-08    0.1500000053E-06
     PET DIFF ERROR     7    5    0.2245498948E-08    0.1500000053E-06
     PET DIFF ERROR     8    4    0.2245498913E-08    0.1500000053E-06
     PET DIFF ERROR     8    5    0.2245498924E-08    0.1500000053E-06
          0                 9           2             4    8     1       0.6340011958E-03       4    8    1         0.3378570276E-01      0.7158132138E-01
     PET DIFF ERROR     6    4    0.2245498963E-08    0.1500000053E-06
     PET DIFF ERROR     6    5    0.2245492323E-08    0.1500000053E-06
     PET DIFF ERROR     7    4    0.2245498899E-08    0.1500000053E-06
     PET DIFF ERROR     7    5    0.2245498948E-08    0.1500000053E-06
     PET DIFF ERROR     8    4    0.2245498913E-08    0.1500000053E-06
     PET DIFF ERROR     8    5    0.2245498924E-08    0.1500000053E-06
          0                10           2             4    8     1       0.2827812430E-03       4    8    1         0.1506253775E-01      0.3198869201E-01
     PET DIFF ERROR     6    4    0.2245498963E-08    0.1500000053E-06
     PET DIFF ERROR     6    5    0.2245492323E-08    0.1500000053E-06
     PET DIFF ERROR     7    4    0.2245498899E-08    0.1500000053E-06
     PET DIFF ERROR     7    5    0.2245498948E-08    0.1500000053E-06
     PET DIFF ERROR     8    4    0.2245498913E-08    0.1500000053E-06
     PET DIFF ERROR     8    5    0.2245498924E-08    0.1500000053E-06
                                                   Max.-Head-Change                         Max.-Flux-Residual
  Residual-Control   Outer-Iter.   Inner-Iter.     Column Row Layer    Maximum-Head-Change  Column Row Layer    Maximum-Flux-Residual          L2-NORM 
          0                11           2             4    8     1       0.1261946438E-03       4    8    1         0.6718966638E-02      0.1430422222E-01
     PET DIFF ERROR     6    4    0.2245498963E-08    0.1500000053E-06
     PET DIFF ERROR     6    5    0.2245492323E-08    0.1500000053E-06
     PET DIFF ERROR     7    4    0.2245498899E-08    0.1500000053E-06
     PET DIFF ERROR     7    5    0.2245498948E-08    0.1500000053E-06
     PET DIFF ERROR     8    4    0.2245498913E-08    0.1500000053E-06
     PET DIFF ERROR     8    5    0.2245498924E-08    0.1500000053E-06
          0                12           1             4    8     1       0.5634422536E-04       4    8    1         0.2998710208E-02      0.6400070811E-02

    ------------------------------------------------
       NWT REQUIRED           12 OUTER ITERATIONS 
       AND A TOTAL OF         23 INNER ITERATIONS.
    ------------------------------------------------

 NO OUTPUT CONTROL FOR STRESS PERIOD   19   TIME STEP    4
     PET DIFF ERROR     6    4    0.2245498963E-08    0.1500000053E-06
     PET DIFF ERROR     6    5    0.2245492323E-08    0.1500000053E-06
     PET DIFF ERROR     7    4    0.2245498899E-08    0.1500000053E-06
     PET DIFF ERROR     7    5    0.2245498948E-08    0.1500000053E-06
     PET DIFF ERROR     8    4    0.2245498913E-08    0.1500000053E-06
     PET DIFF ERROR     8    5    0.2245498924E-08    0.1500000053E-06
 
 SOLVING FOR HEAD 
                                                   Max.-Head-Change                         Max.-Flux-Residual
  Residual-Control   Outer-Iter.   Inner-Iter.     Column Row Layer    Maximum-Head-Change  Column Row Layer    Maximum-Flux-Residual          L2-NORM 
          0                 1           2             4    7     1       0.4915983594E+00       4    7    1         0.2582542194E+02      0.5275561499E+02
          0                 2           2             4    7     1       0.1485451614E+00       4    7    1         0.7825306471E+01      0.1423647186E+02
          0                 3           2             4    7     1       0.6713183385E-01       4    7    1         0.3538145570E+01      0.6387833227E+01
          0                 4           2             4    7     1       0.3033019531E-01       4    7    1         0.1598854203E+01      0.2870013329E+01
          0                 5           2             4    7     1       0.1369951535E-01       4    7    1         0.7223311142E+00      0.1289712500E+01
          0                 6           2             4    7     1       0.6186212471E-02       4    7    1         0.3262460814E+00      0.5795756450E+00
          0                 7           2             4    7     1       0.2792801614E-02       4    7    1         0.1473144370E+00      0.2604599355E+00
          0                 8           2             4    7     1       0.1260540040E-02       4    7    1         0.6650309887E-01      0.1170529861E+00
          0                 9           2             4    7     1       0.5688265819E-03       4    7    1         0.3001516629E-01      0.5260579970E-01
          0                10           2             4    7     1       0.2566344094E-03       4    7    1         0.1354400952E-01      0.2364248436E-01
                                                   Max.-Head-Change                         Max.-Flux-Residual
  Residual-Control   Outer-Iter.   Inner-Iter.     Column Row Layer    Maximum-Head-Change  Column Row Layer    Maximum-Flux-Residual          L2-NORM 
          0                11           1             4    7     1       0.1157621184E-03       4    7    1         0.6110354628E-02      0.1062575864E-01
          0                12           1             4    7     1       0.5220825409E-04       4    7    1         0.2756151073E-02      0.4775658548E-02

    ------------------------------------------------
       NWT REQUIRED           12 OUTER ITERATIONS 
       AND A TOTAL OF         22 INNER ITERATIONS.
    ------------------------------------------------

 NO OUTPUT CONTROL FOR STRESS PERIOD   19   TIME STEP    5
 
 SOLVING FOR HEAD 
                                                   Max.-Head-Change                         Max.-Flux-Residual
  Residual-Control   Outer-Iter.   Inner-Iter.     Column Row Layer    Maximum-Head-Change  Column Row Layer    Maximum-Flux-Residual          L2-NORM 
          0                 1           2             4    7     1       0.4812547677E+00       4    7    1         0.2529244998E+02      0.5052611605E+02
          0                 2           2             4    7     1       0.2182821543E+00       4    7    1         0.1146886855E+02      0.2253506927E+02
          0                 3           2             4    7     1       0.9896320321E-01       4    7    1         0.5202219035E+01      0.1011200750E+02
          0                 4           2             4    7     1       0.4484862687E-01       4    7    1         0.2358324064E+01      0.4538411792E+01
          0                 5           2             4    7     1       0.2031661387E-01       4    7    1         0.1068682383E+01      0.2037474924E+01
          0                 6           2             4    7     1       0.9199988836E-02       4    7    1         0.4840830470E+00      0.9148696423E+00
          0                 7           2             4    7     1       0.4164511909E-02       4    7    1         0.2191927627E+00      0.4108595991E+00
          0                 8           2             4    7     1       0.1884467871E-02       4    7    1         0.9921435683E-01      0.1845366411E+00
          0                 9           2             4    7     1       0.8524483419E-03       4    7    1         0.4489230166E-01      0.8289291320E-01
          0                10           2             4    7     1       0.3854862085E-03       4    7    1         0.2030603559E-01      0.3723833359E-01
                                                   Max.-Head-Change                         Max.-Flux-Residual
  Residual-Control   Outer-Iter.   Inner-Iter.     Column Row Layer    Maximum-Head-Change  Column Row Layer    Maximum-Flux-Residual          L2-NORM 
          0                11           2             4    7     1       0.1742679898E-03       4    7    1         0.9182079627E-02      0.1672996464E-01
          0                12           1             4    7     1       0.7875910278E-04       4    7    1         0.4150745824E-02      0.7516693075E-02

    ------------------------------------------------
       NWT REQUIRED           12 OUTER ITERATIONS 
       AND A TOTAL OF         23 INNER ITERATIONS.
    ------------------------------------------------

 NO OUTPUT CONTROL FOR STRESS PERIOD   19   TIME STEP    6
 
 SOLVING FOR HEAD 
                                                   Max.-Head-Change                         Max.-Flux-Residual
  Residual-Control   Outer-Iter.   Inner-Iter.     Column Row Layer    Maximum-Head-Change  Column Row Layer    Maximum-Flux-Residual          L2-NORM 
          0                 1           2             4    7     1       0.4682953965E+00       4    7    1         0.2471003429E+02      0.4613019315E+02
          0                 2           2             5    8     1      -0.1728232268E+01       5    8    1        -0.9521272344E+02      0.2257175839E+03
          0                 3           2             4    7     1      -0.4359719404E+00       4    7    1        -0.2364383020E+02      0.4424376822E+02
          0                 4           2             4    7     1       0.2968852625E-01       4    7    1         0.1655028299E+01      0.3097141420E+01
          0                 5           2             4    7     1      -0.1181632508E-02       4    7    1        -0.6770541004E-01      0.1266961852E+00
          0                 6           1             4    7     1       0.1458082867E-04       4    7    1         0.8584976499E-03      0.1610509009E-02

    ------------------------------------------------
       NWT REQUIRED            6 OUTER ITERATIONS 
       AND A TOTAL OF         11 INNER ITERATIONS.
    ------------------------------------------------

 NO OUTPUT CONTROL FOR STRESS PERIOD   19   TIME STEP    7
 
 SOLVING FOR HEAD 
                                                   Max.-Head-Change                         Max.-Flux-Residual
  Residual-Control   Outer-Iter.   Inner-Iter.     Column Row Layer    Maximum-Head-Change  Column Row Layer    Maximum-Flux-Residual          L2-NORM 
          0                 1           2             4    7     1       0.1641485999E+00       4    7    1         0.8697741405E+01      0.1632037623E+02
          0                 2           2             4    7     1      -0.1019603480E+00       4    7    1        -0.5483598385E+01      0.1278570277E+02
          0                 3           2             4    7     1       0.6943027930E-02       4    7    1         0.3838459209E+00      0.8949107486E+00
          0                 4           2             4    7     1      -0.2762700238E-03       4    7    1        -0.1569934849E-01      0.3659812023E-01
          0                 5           1             4    7     1       0.3406528427E-05       4    7    1         0.1989590969E-03      0.4640539470E-03

    ------------------------------------------------
       NWT REQUIRED            5 OUTER ITERATIONS 
       AND A TOTAL OF          9 INNER ITERATIONS.
    ------------------------------------------------

 NO OUTPUT CONTROL FOR STRESS PERIOD   19   TIME STEP    8
 
 SOLVING FOR HEAD 
                                                   Max.-Head-Change                         Max.-Flux-Residual
  Residual-Control   Outer-Iter.   Inner-Iter.     Column Row Layer    Maximum-Head-Change  Column Row Layer    Maximum-Flux-Residual          L2-NORM 
          0                 1           2             4    6     1       0.2074131728E+00       4    6    1         0.1113551362E+02      0.1879388104E+02
          0                 2           2             4    6     1       0.9126308375E-01       4    6    1         0.4919502915E+01      0.6579243039E+01
          0                 3           2             4    6     1       0.4011922349E-01       4    6    1         0.2162647439E+01      0.2772938990E+01
          0                 4           2             4    6     1       0.1762165719E-01       4    6    1         0.9506173932E+00      0.1190047518E+01
          0                 5           2             4    6     1       0.7734130344E-02       4    6    1         0.4174802724E+00      0.5116937273E+00
          0                 6           2             4    6     1       0.3392162776E-02       4    6    1         0.1832060512E+00      0.2203635244E+00
          0                 7           2             4    6     1       0.1486856938E-02       4    6    1         0.8034348921E-01      0.9503248390E-01
          0                 8           2             4    6     1       0.6513480371E-03       4    6    1         0.3521222212E-01      0.4103347700E-01
          0                 9           2             4    6     1       0.2851873036E-03       4    6    1         0.1542382209E-01      0.1773680112E-01
          0                10           2             4    6     1       0.1248073125E-03       4    6    1         0.6752547689E-02      0.7674063025E-02
          0                11           1             4    6     1       0.5459594304E-04       4    6    1         0.2954878542E-02      0.3323047284E-02

    ------------------------------------------------
       NWT REQUIRED           11 OUTER ITERATIONS 
       AND A TOTAL OF         21 INNER ITERATIONS.
    ------------------------------------------------

 NO OUTPUT CONTROL FOR STRESS PERIOD   19   TIME STEP    9
 
 SOLVING FOR HEAD 
     PET DIFF ERROR     6    4    0.2245498913E-08    0.1500000053E-06
     PET DIFF ERROR     6    5    0.2245498963E-08    0.1500000053E-06
     PET DIFF ERROR     7    4    0.2245498913E-08    0.1500000053E-06
     PET DIFF ERROR     7    5    0.2245498913E-08    0.1500000053E-06
     PET DIFF ERROR     8    4    0.2245498913E-08    0.1500000053E-06
     PET DIFF ERROR     8    5    0.2245498938E-08    0.1500000053E-06
                                                   Max.-Head-Change                         Max.-Flux-Residual
  Residual-Control   Outer-Iter.   Inner-Iter.     Column Row Layer    Maximum-Head-Change  Column Row Layer    Maximum-Flux-Residual          L2-NORM 
          0                 1           2             4    7     1       0.3483263282E+00       4    7    1         0.1853088066E+02      0.2990642879E+02
     PET DIFF ERROR     6    4    0.2245498913E-08    0.1500000053E-06
     PET DIFF ERROR     6    5    0.2245498963E-08    0.1500000053E-06
     PET DIFF ERROR     7    4    0.2245498913E-08    0.1500000053E-06
     PET DIFF ERROR     7    5    0.2245498913E-08    0.1500000053E-06
     PET DIFF ERROR     8    4    0.2245498913E-08    0.1500000053E-06
     PET DIFF ERROR     8    5    0.2245498938E-08    0.1500000053E-06
          0                 2           2             4    7     1       0.1448004229E+00       4    7    1         0.7697333002E+01      0.1207814989E+02
     PET DIFF ERROR     6    4    0.2245498913E-08    0.1500000053E-06
     PET DIFF ERROR     6    5    0.2245498963E-08    0.1500000053E-06
     PET DIFF ERROR     7    4    0.2245498913E-08    0.1500000053E-06
     PET DIFF ERROR     7    5    0.2245498913E-08    0.1500000053E-06
     PET DIFF ERROR     8    4    0.2245498913E-08    0.1500000053E-06
     PET DIFF ERROR     8    5    0.2245498938E-08    0.1500000053E-06
          0                 3           2             4    7     1       0.6020541906E-01       4    7    1         0.3200389486E+01      0.5024096836E+01
     PET DIFF ERROR     6    4    0.2245498913E-08    0.1500000053E-06
     PET DIFF ERROR     6    5    0.2245498963E-08    0.1500000053E-06
     PET DIFF ERROR     7    4    0.2245498913E-08    0.1500000053E-06
     PET DIFF ERROR     7    5    0.2245498913E-08    0.1500000053E-06
     PET DIFF ERROR     8    4    0.2245498913E-08    0.1500000053E-06
     PET DIFF ERROR     8    5    0.2245498938E-08    0.1500000053E-06
          0                 4           2             4    7     1       0.2503859411E-01       4    7    1         0.1330692107E+01      0.2092673863E+01
     PET DIFF ERROR     6    4    0.2245498913E-08    0.1500000053E-06
     PET DIFF ERROR     6    5    0.2245498963E-08    0.1500000053E-06
     PET DIFF ERROR     7    4    0.2245498913E-08    0.1500000053E-06
     PET DIFF ERROR     7    5    0.2245498913E-08    0.1500000053E-06
     PET DIFF ERROR     8    4    0.2245498913E-08    0.1500000053E-06
     PET DIFF ERROR     8    5    0.2245498938E-08    0.1500000053E-06
          0                 5           2             4    7     1       0.1041565293E-01       4    7    1         0.5534465408E+00      0.8718820465E+00
     PET DIFF ERROR     6    4    0.2245498913E-08    0.1500000053E-06
     PET DIFF ERROR     6    5    0.2245498963E-08    0.1500000053E-06
     PET DIFF ERROR     7    4    0.2245498913E-08    0.1500000053E-06
     PET DIFF ERROR     7    5    0.2245498913E-08    0.1500000053E-06
     PET DIFF ERROR     8    4    0.2245498913E-08    0.1500000053E-06
     PET DIFF ERROR     8    5    0.2245498938E-08    0.1500000053E-06
          0                 6           2             4    7     1       0.4333704962E-02       4    7    1         0.2302351495E+00      0.3632994347E+00
     PET DIFF ERROR     6    4    0.2245498913E-08    0.1500000053E-06
     PET DIFF ERROR     6    5    0.2245498963E-08    0.1500000053E-06
     PET DIFF ERROR     7    4    0.2245498913E-08    0.1500000053E-06
     PET DIFF ERROR     7    5    0.2245498913E-08    0.1500000053E-06
     PET DIFF ERROR     8    4    0.2245498913E-08    0.1500000053E-06
     PET DIFF ERROR     8    5    0.2245498938E-08    0.1500000053E-06
          0                 7           2             4    7     1       0.1803527950E-02       4    7    1         0.9579946173E-01      0.1513998272E+00
     PET DIFF ERROR     6    4    0.2245498913E-08    0.1500000053E-06
     PET DIFF ERROR     6    5    0.2245498963E-08    0.1500000053E-06
     PET DIFF ERROR     7    4    0.2245498913E-08    0.1500000053E-06
     PET DIFF ERROR     7    5    0.2245498913E-08    0.1500000053E-06
     PET DIFF ERROR     8    4    0.2245498913E-08    0.1500000053E-06
     PET DIFF ERROR     8    5    0.2245498938E-08    0.1500000053E-06
          0                 8           2             4    7     1       0.7507093523E-03       4    7    1         0.3986979451E-01      0.6310072529E-01
     PET DIFF ERROR     6    4    0.2245498913E-08    0.1500000053E-06
     PET DIFF ERROR     6    5    0.2245498963E-08    0.1500000053E-06
     PET DIFF ERROR     7    4    0.2245498913E-08    0.1500000053E-06
     PET DIFF ERROR     7    5    0.2245498913E-08    0.1500000053E-06
     PET DIFF ERROR     8    4    0.2245498913E-08    0.1500000053E-06
     PET DIFF ERROR     8    5    0.2245498938E-08    0.1500000053E-06
          0                 9           2             4    7     1       0.3125368211E-03       4    7    1         0.1659622501E-01      0.2630196460E-01
     PET DIFF ERROR     6    4    0.2245498913E-08    0.1500000053E-06
     PET DIFF ERROR     6    5    0.2245498963E-08    0.1500000053E-06
     PET DIFF ERROR     7    4    0.2245498913E-08    0.1500000053E-06
     PET DIFF ERROR     7    5    0.2245498913E-08    0.1500000053E-06
     PET DIFF ERROR     8    4    0.2245498913E-08    0.1500000053E-06
     PET DIFF ERROR     8    5    0.2245498938E-08    0.1500000053E-06
          0                10           2             4    7     1       0.1301386323E-03       4    7    1         0.6909618576E-02      0.1096436408E-01
     PET DIFF ERROR     6    4    0.2245498913E-08    0.1500000053E-06
     PET DIFF ERROR     6    5    0.2245498963E-08    0.1500000053E-06
     PET DIFF ERROR     7    4    0.2245498913E-08    0.1500000053E-06
     PET DIFF ERROR     7    5    0.2245498913E-08    0.1500000053E-06
     PET DIFF ERROR     8    4    0.2245498913E-08    0.1500000053E-06
     PET DIFF ERROR     8    5    0.2245498938E-08    0.1500000053E-06
          0                11           1             4    7     1       0.5419790470E-04       4    7    1         0.2877223568E-02      0.4571060815E-02

    ------------------------------------------------
       NWT REQUIRED           11 OUTER ITERATIONS 
       AND A TOTAL OF         21 INNER ITERATIONS.
    ------------------------------------------------

 NO OUTPUT CONTROL FOR STRESS PERIOD   19   TIME STEP   10
     PET DIFF ERROR     6    4    0.2245498913E-08    0.1500000053E-06
     PET DIFF ERROR     6    5    0.2245498963E-08    0.1500000053E-06
     PET DIFF ERROR     7    4    0.2245498913E-08    0.1500000053E-06
     PET DIFF ERROR     7    5    0.2245498913E-08    0.1500000053E-06
     PET DIFF ERROR     8    4    0.2245498913E-08    0.1500000053E-06
     PET DIFF ERROR     8    5    0.2245498938E-08    0.1500000053E-06
 
 SOLVING FOR HEAD 
                                                   Max.-Head-Change                         Max.-Flux-Residual
  Residual-Control   Outer-Iter.   Inner-Iter.     Column Row Layer    Maximum-Head-Change  Column Row Layer    Maximum-Flux-Residual          L2-NORM 
          0                 1           2             4    7     1       0.3378727391E+00       4    7    1         0.1772723645E+02      0.3872851515E+02
          0                 2           2             4    7     1       0.6829090471E-01       4    7    1         0.3599981872E+01      0.6639969321E+01
          0                 3           2             4    7     1       0.2867640788E-01       4    7    1         0.1512383481E+01      0.2760269558E+01
          0                 4           2             4    7     1       0.1204052347E-01       4    7    1         0.6350231475E+00      0.1155689610E+01
          0                 5           2             4    7     1       0.5055057529E-02       4    7    1         0.2666268123E+00      0.4840922735E+00
          0                 6           2             4    7     1       0.2122112535E-02       4    7    1         0.1119378658E+00      0.2027736950E+00
          0                 7           2             4    7     1       0.8907867246E-03       4    7    1         0.4699071419E-01      0.8493845206E-01
          0                 8           2             4    7     1       0.3738896960E-03       4    7    1         0.1972469660E-01      0.3557979610E-01
          0                 9           2             4    7     1       0.1569202807E-03       4    7    1         0.8278912855E-02      0.1490420607E-01
          0                10           1             4    7     1       0.6585394983E-04       4    7    1         0.3474580435E-02      0.6243383325E-02

    ------------------------------------------------
       NWT REQUIRED           10 OUTER ITERATIONS 
       AND A TOTAL OF         19 INNER ITERATIONS.
    ------------------------------------------------

 NO OUTPUT CONTROL FOR STRESS PERIOD   19   TIME STEP   11
 
 SOLVING FOR HEAD 
                                                   Max.-Head-Change                         Max.-Flux-Residual
  Residual-Control   Outer-Iter.   Inner-Iter.     Column Row Layer    Maximum-Head-Change  Column Row Layer    Maximum-Flux-Residual          L2-NORM 
          0                 1           2             4    7     1       0.3322504653E+00       4    7    1         0.1743743068E+02      0.3737886275E+02
          0                 2           2             4    7     1       0.1404023437E+00       4    7    1         0.7365940792E+01      0.1536666135E+02
          0                 3           2             4    7     1       0.5930394236E-01       4    7    1         0.3112954169E+01      0.6384503794E+01
          0                 4           2             4    7     1       0.2503761022E-01       4    7    1         0.1314718911E+01      0.2655734251E+01
          0                 5           2             4    7     1       0.1056582805E-01       4    7    1         0.5550170329E+00      0.1105810964E+01
          0                 6           2             4    7     1       0.4456753651E-02       4    7    1         0.2341956649E+00      0.4607694254E+00
          0                 7           2             4    7     1       0.1879068117E-02       4    7    1         0.9877720325E-01      0.1921007927E+00
          0                 8           2             4    7     1       0.7919186362E-03       4    7    1         0.4164320675E-01      0.8012406273E-01
          0                 9           2             4    7     1       0.3336097776E-03       4    7    1         0.1754877411E-01      0.3343061388E-01
          0                10           2             4    7     1       0.1404829542E-03       4    7    1         0.7392149237E-02      0.1395217759E-01
          0                11           1             4    7     1       0.5913463587E-04       4    7    1         0.3112594668E-02      0.5824141281E-02

    ------------------------------------------------
       NWT REQUIRED           11 OUTER ITERATIONS 
       AND A TOTAL OF         21 INNER ITERATIONS.
    ------------------------------------------------

 NO OUTPUT CONTROL FOR STRESS PERIOD   19   TIME STEP   12
 
 SOLVING FOR HEAD 
                                                   Max.-Head-Change                         Max.-Flux-Residual
  Residual-Control   Outer-Iter.   Inner-Iter.     Column Row Layer    Maximum-Head-Change  Column Row Layer    Maximum-Flux-Residual          L2-NORM 
          0                 1           2             4    7     1       0.3257274164E+00       4    7    1         0.1710460784E+02      0.3526537379E+02
          0                 2           2             5    8     1      -0.1751351339E+01       5    8    1        -0.9649670537E+02      0.2306690993E+03
          0                 3           2             4    7     1      -0.2387086662E+00       4    7    1        -0.1286477877E+02      0.2643965455E+02
          0                 4           2             4    7     1       0.1625671266E-01       4    7    1         0.9005985780E+00      0.1850856385E+01
          0                 5           2             4    7     1      -0.6470269591E-03       4    7    1        -0.3684215944E-01      0.7571194963E-01
          0                 6           1             4    7     1       0.7984040034E-05       4    7    1         0.4671585282E-03      0.9618913346E-03

    ------------------------------------------------
       NWT REQUIRED            6 OUTER ITERATIONS 
       AND A TOTAL OF         11 INNER ITERATIONS.
    ------------------------------------------------

 NO OUTPUT CONTROL FOR STRESS PERIOD   19   TIME STEP   13
 
 SOLVING FOR HEAD 
                                                   Max.-Head-Change                         Max.-Flux-Residual
  Residual-Control   Outer-Iter.   Inner-Iter.     Column Row Layer    Maximum-Head-Change  Column Row Layer    Maximum-Flux-Residual          L2-NORM 
          0                 1           2             4    7     1       0.1330536703E+00       4    7    1         0.6999483065E+01      0.1650844704E+02
          0                 2           2             4    7     1      -0.9893057110E-01       4    7    1        -0.5313754222E+01      0.1284556256E+02
          0                 3           2             4    7     1       0.6736740383E-02       4    7    1         0.3719587483E+00      0.8991022076E+00
          0                 4           2             4    7     1      -0.2680615102E-03       4    7    1        -0.1521315352E-01      0.3676999424E-01
          0                 5           1             4    7     1       0.3305314061E-05       4    7    1         0.1927975113E-03      0.4663267896E-03

    ------------------------------------------------
       NWT REQUIRED            5 OUTER ITERATIONS 
       AND A TOTAL OF          9 INNER ITERATIONS.
    ------------------------------------------------

 NO OUTPUT CONTROL FOR STRESS PERIOD   19   TIME STEP   14
 
 SOLVING FOR HEAD 
                                                   Max.-Head-Change                         Max.-Flux-Residual
  Residual-Control   Outer-Iter.   Inner-Iter.     Column Row Layer    Maximum-Head-Change  Column Row Layer    Maximum-Flux-Residual          L2-NORM 
          0                 1           2             4    7     1       0.1318195514E+00       4    7    1         0.6933861099E+01      0.1629656760E+02
          0                 2           2             4    7     1      -0.1282260687E-01       4    7    1        -0.6933974981E+00      0.1629610595E+01
          0                 3           2             4    7     1       0.8731704360E-03       4    7    1         0.4853773806E-01      0.1140720060E+00
          0                 4           1             4    7     1      -0.3474427574E-04       4    7    1        -0.1985196763E-02      0.4665485834E-02

    ------------------------------------------------
       NWT REQUIRED            4 OUTER ITERATIONS 
       AND A TOTAL OF          7 INNER ITERATIONS.
    ------------------------------------------------

 NO OUTPUT CONTROL FOR STRESS PERIOD   19   TIME STEP   15
 
 SOLVING FOR HEAD 
     PET DIFF ERROR     6    4    0.2245498963E-08    0.1500000053E-06
     PET DIFF ERROR     6    5    0.2245498948E-08    0.1500000053E-06
     PET DIFF ERROR     7    4    0.2245498948E-08    0.1500000053E-06
     PET DIFF ERROR     7    5    0.2245498963E-08    0.1500000053E-06
     PET DIFF ERROR     8    4    0.2245498963E-08    0.1500000053E-06
     PET DIFF ERROR     8    5    0.2245498913E-08    0.1500000053E-06
                                                   Max.-Head-Change                         Max.-Flux-Residual
  Residual-Control   Outer-Iter.   Inner-Iter.     Column Row Layer    Maximum-Head-Change  Column Row Layer    Maximum-Flux-Residual          L2-NORM 
          0                 1           2             4    7     1       0.1578560301E+00       4    7    1         0.8340337292E+01      0.1702753002E+02
     PET DIFF ERROR     6    4    0.2245498963E-08    0.1500000053E-06
     PET DIFF ERROR     6    5    0.2245498948E-08    0.1500000053E-06
     PET DIFF ERROR     7    4    0.2245498948E-08    0.1500000053E-06
     PET DIFF ERROR     7    5    0.2245498963E-08    0.1500000053E-06
     PET DIFF ERROR     8    4    0.2245498963E-08    0.1500000053E-06
     PET DIFF ERROR     8    5    0.2245498913E-08    0.1500000053E-06
          0                 2           2             4    7     1       0.6494852685E-01       4    7    1         0.3494099207E+01      0.5367133626E+01
     PET DIFF ERROR     6    4    0.2245498963E-08    0.1500000053E-06
     PET DIFF ERROR     6    5    0.2245498948E-08    0.1500000053E-06
     PET DIFF ERROR     7    4    0.2245498948E-08    0.1500000053E-06
     PET DIFF ERROR     7    5    0.2245498963E-08    0.1500000053E-06
     PET DIFF ERROR     8    4    0.2245498963E-08    0.1500000053E-06
     PET DIFF ERROR     8    5    0.2245498913E-08    0.1500000053E-06
          0                 3           2             4    7     1       0.2667551516E-01       4    7    1         0.1431519179E+01      0.2175552709E+01
     PET DIFF ERROR     6    4    0.2245498963E-08    0.1500000053E-06
     PET DIFF ERROR     6    5    0.2245498948E-08    0.1500000053E-06
     PET DIFF ERROR     7    4    0.2245498948E-08    0.1500000053E-06
     PET DIFF ERROR     7    5    0.2245498963E-08    0.1500000053E-06
     PET DIFF ERROR     8    4    0.2245498963E-08    0.1500000053E-06
     PET DIFF ERROR     8    5    0.2245498913E-08    0.1500000053E-06
          0                 4           2             4    7     1       0.1096402756E-01       4    7    1         0.5882081013E+00      0.8969155731E+00
     PET DIFF ERROR     6    4    0.2245498963E-08    0.1500000053E-06
     PET DIFF ERROR     6    5    0.2245498948E-08    0.1500000053E-06
     PET DIFF ERROR     7    4    0.2245498948E-08    0.1500000053E-06
     PET DIFF ERROR     7    5    0.2245498963E-08    0.1500000053E-06
     PET DIFF ERROR     8    4    0.2245498963E-08    0.1500000053E-06
     PET DIFF ERROR     8    5    0.2245498913E-08    0.1500000053E-06
          0                 5           2             4    7     1       0.4509283425E-02       4    7    1         0.2417880623E+00      0.3702181587E+00
     PET DIFF ERROR     6    4    0.2245498963E-08    0.1500000053E-06
     PET DIFF ERROR     6    5    0.2245498948E-08    0.1500000053E-06
     PET DIFF ERROR     7    4    0.2245498948E-08    0.1500000053E-06
     PET DIFF ERROR     7    5    0.2245498963E-08    0.1500000053E-06
     PET DIFF ERROR     8    4    0.2245498963E-08    0.1500000053E-06
     PET DIFF ERROR     8    5    0.2245498913E-08    0.1500000053E-06
          0                 6           2             4    7     1       0.1855643871E-02       4    7    1         0.9945515198E-01      0.1528906802E+00
     PET DIFF ERROR     6    4    0.2245498963E-08    0.1500000053E-06
     PET DIFF ERROR     6    5    0.2245498948E-08    0.1500000053E-06
     PET DIFF ERROR     7    4    0.2245498948E-08    0.1500000053E-06
     PET DIFF ERROR     7    5    0.2245498963E-08    0.1500000053E-06
     PET DIFF ERROR     8    4    0.2245498963E-08    0.1500000053E-06
     PET DIFF ERROR     8    5    0.2245498913E-08    0.1500000053E-06
          0                 7           2             4    7     1       0.7640192562E-03       4    7    1         0.4093190285E-01      0.6316516443E-01
     PET DIFF ERROR     6    4    0.2245498963E-08    0.1500000053E-06
     PET DIFF ERROR     6    5    0.2245498948E-08    0.1500000053E-06
     PET DIFF ERROR     7    4    0.2245498948E-08    0.1500000053E-06
     PET DIFF ERROR     7    5    0.2245498963E-08    0.1500000053E-06
     PET DIFF ERROR     8    4    0.2245498963E-08    0.1500000053E-06
     PET DIFF ERROR     8    5    0.2245498913E-08    0.1500000053E-06
          0                 8           2             4    7     1       0.3147113609E-03       4    7    1         0.1685443182E-01      0.2610403221E-01
     PET DIFF ERROR     6    4    0.2245498963E-08    0.1500000053E-06
     PET DIFF ERROR     6    5    0.2245498948E-08    0.1500000053E-06
     PET DIFF ERROR     7    4    0.2245498948E-08    0.1500000053E-06
     PET DIFF ERROR     7    5    0.2245498963E-08    0.1500000053E-06
     PET DIFF ERROR     8    4    0.2245498963E-08    0.1500000053E-06
     PET DIFF ERROR     8    5    0.2245498913E-08    0.1500000053E-06
          0                 9           2             4    7     1       0.1296873234E-03       4    7    1         0.6943206821E-02      0.1079050377E-01
     PET DIFF ERROR     6    4    0.2245498963E-08    0.1500000053E-06
     PET DIFF ERROR     6    5    0.2245498948E-08    0.1500000053E-06
     PET DIFF ERROR     7    4    0.2245498948E-08    0.1500000053E-06
     PET DIFF ERROR     7    5    0.2245498963E-08    0.1500000053E-06
     PET DIFF ERROR     8    4    0.2245498963E-08    0.1500000053E-06
     PET DIFF ERROR     8    5    0.2245498913E-08    0.1500000053E-06
          0                10           1             4    7     1       0.5346142847E-04       4    7    1         0.2861402651E-02      0.4461255955E-02

    ------------------------------------------------
       NWT REQUIRED           10 OUTER ITERATIONS 
       AND A TOTAL OF         19 INNER ITERATIONS.
    ------------------------------------------------

 NO OUTPUT CONTROL FOR STRESS PERIOD   19   TIME STEP   16
     PET DIFF ERROR     6    4    0.2245498963E-08    0.1500000053E-06
     PET DIFF ERROR     6    5    0.2245498948E-08    0.1500000053E-06
     PET DIFF ERROR     7    4    0.2245498948E-08    0.1500000053E-06
     PET DIFF ERROR     7    5    0.2245498963E-08    0.1500000053E-06
     PET DIFF ERROR     8    4    0.2245498963E-08    0.1500000053E-06
     PET DIFF ERROR     8    5    0.2245498913E-08    0.1500000053E-06
 
 SOLVING FOR HEAD 
                                                   Max.-Head-Change                         Max.-Flux-Residual
  Residual-Control   Outer-Iter.   Inner-Iter.     Column Row Layer    Maximum-Head-Change  Column Row Layer    Maximum-Flux-Residual          L2-NORM 
          0                 1           2             5    8     1       0.3879828904E+00       5    8    1         0.2113568886E+02      0.3752595823E+02
          0                 2           2             5    8     1       0.1003382417E+00       5    8    1         0.5520048563E+01      0.7164323983E+01
          0                 3           2             5    8     1       0.4410855025E-01       5    8    1         0.2428242576E+01      0.3053581725E+01
          0                 4           2             5    8     1       0.1939895711E-01       5    8    1         0.1067379702E+01      0.1313732007E+01
          0                 5           2             5    8     1       0.8534761359E-02       5    8    1         0.4694864916E+00      0.5667991720E+00
          0                 6           2             5    8     1       0.3756017268E-02       5    8    1         0.2065677164E+00      0.2450629197E+00
          0                 7           2             5    8     1       0.1653327785E-02       5    8    1         0.9091192684E-01      0.1061605467E+00
          0                 8           2             5    8     1       0.7278848401E-03       5    8    1         0.4001925470E-01      0.4606750577E-01
          0                 9           2             5    8     1       0.3204941590E-03       5    8    1         0.1761916793E-01      0.2002136751E-01
          0                10           1             5    8     1       0.1411289925E-03       5    8    1         0.7758043239E-02      0.8713446299E-02
          0                11           1             5    8     1       0.6214968060E-04       5    8    1         0.3416292074E-02      0.3796824184E-02

    ------------------------------------------------
       NWT REQUIRED           11 OUTER ITERATIONS 
       AND A TOTAL OF         20 INNER ITERATIONS.
    ------------------------------------------------

 NO OUTPUT CONTROL FOR STRESS PERIOD   19   TIME STEP   17
 
 SOLVING FOR HEAD 
                                                   Max.-Head-Change                         Max.-Flux-Residual
  Residual-Control   Outer-Iter.   Inner-Iter.     Column Row Layer    Maximum-Head-Change  Column Row Layer    Maximum-Flux-Residual          L2-NORM 
          0                 1           2             5    8     1       0.3988307107E+00       5    8    1         0.2153688225E+02      0.4014007001E+02
          0                 2           2             5    8     1       0.1769986139E+00       5    8    1         0.9528284229E+01      0.1735810653E+02
          0                 3           2             5    8     1       0.7809612609E-01       5    8    1         0.4201582514E+01      0.7615665635E+01
          0                 4           2             4    8     1       0.3492312906E-01       4    8    1         0.1856494416E+01      0.3359378605E+01
          0                 5           2             4    8     1       0.1600366096E-01       4    8    1         0.8517314036E+00      0.1488498689E+01
          0                 6           2             4    8     1       0.7324696755E-02       4    8    1         0.3902112930E+00      0.6618431549E+00
          0                 7           2             4    8     1       0.3348870872E-02       4    8    1         0.1785570949E+00      0.2951079638E+00
          0                 8           2             4    8     1       0.1529701786E-02       4    8    1         0.8162165786E-01      0.1318817499E+00
          0                 9           2             4    8     1       0.6981768915E-03       4    8    1         0.3727724642E-01      0.5904408441E-01
          0                10           2             4    8     1       0.3184320736E-03       4    8    1         0.1701144802E-01      0.2647314053E-01
                                                   Max.-Head-Change                         Max.-Flux-Residual
  Residual-Control   Outer-Iter.   Inner-Iter.     Column Row Layer    Maximum-Head-Change  Column Row Layer    Maximum-Flux-Residual          L2-NORM 
          0                11           2             4    8     1       0.1451430752E-03       4    8    1         0.7757801859E-02      0.1188372128E-01
          0                12           1             4    8     1       0.6612018728E-04       4    8    1         0.3535659349E-02      0.5339766216E-02

    ------------------------------------------------
       NWT REQUIRED           12 OUTER ITERATIONS 
       AND A TOTAL OF         23 INNER ITERATIONS.
    ------------------------------------------------

 NO OUTPUT CONTROL FOR STRESS PERIOD   19   TIME STEP   18
 
 SOLVING FOR HEAD 
                                                   Max.-Head-Change                         Max.-Flux-Residual
  Residual-Control   Outer-Iter.   Inner-Iter.     Column Row Layer    Maximum-Head-Change  Column Row Layer    Maximum-Flux-Residual          L2-NORM 
          0                 1           2             5    7     1       0.4521921731E+00       5    7    1         0.2412604435E+02      0.4816903901E+02
          0                 2           2             4    6     1      -0.1754849401E+01       4    6    1        -0.9561304390E+02      0.2243065556E+03
          0                 3           2             5    7     1      -0.4719224549E+00       5    7    1        -0.2596549814E+02      0.4893582709E+02
          0                 4           2             5    7     1       0.3213387533E-01       5    7    1         0.1817230731E+01      0.3425188706E+01
          0                 5           2             5    7     1      -0.1278973248E-02       5    7    1        -0.7433029863E-01      0.1401164323E+00
          0                 6           1             5    7     1       0.1578197846E-04       5    7    1         0.9417159824E-03      0.1783631454E-02

    ------------------------------------------------
       NWT REQUIRED            6 OUTER ITERATIONS 
       AND A TOTAL OF         11 INNER ITERATIONS.
    ------------------------------------------------

 NO OUTPUT CONTROL FOR STRESS PERIOD   19   TIME STEP   19
 
 SOLVING FOR HEAD 
                                                   Max.-Head-Change                         Max.-Flux-Residual
  Residual-Control   Outer-Iter.   Inner-Iter.     Column Row Layer    Maximum-Head-Change  Column Row Layer    Maximum-Flux-Residual          L2-NORM 
          0                 1           2             5    6     1       0.1378852758E+00       5    6    1         0.7466141111E+01      0.1737527434E+02
          0                 2           2             4    7     1      -0.9834026702E-01       5    6    1        -0.5360392242E+01      0.1292294843E+02
          0                 3           2             4    7     1       0.6696556371E-02       5    6    1         0.3752258900E+00      0.9045175164E+00
          0                 4           2             4    7     1      -0.2664624860E-03       5    6    1        -0.1534676831E-01      0.3699121796E-01
          0                 5           1             4    7     1       0.3285597546E-05       5    6    1         0.1944908417E-03      0.4690871151E-03

    ------------------------------------------------
       NWT REQUIRED            5 OUTER ITERATIONS 
       AND A TOTAL OF          9 INNER ITERATIONS.
    ------------------------------------------------

 NO OUTPUT CONTROL FOR STRESS PERIOD   19   TIME STEP   20
 
 SOLVING FOR HEAD 
                                                   Max.-Head-Change                         Max.-Flux-Residual
  Residual-Control   Outer-Iter.   Inner-Iter.     Column Row Layer    Maximum-Head-Change  Column Row Layer    Maximum-Flux-Residual          L2-NORM 
          0                 1           2             5    6     1       0.2627318331E+00       5    6    1         0.1425947606E+02      0.2524801350E+02
          0                 2           2             5    6     1       0.1143429292E+00       5    6    1         0.6225467797E+01      0.9674020585E+01
          0                 3           2             5    6     1       0.4975734252E-01       5    6    1         0.2707385423E+01      0.4165967320E+01
          0                 4           2             5    6     1       0.2165100157E-01       5    6    1         0.1178224533E+01      0.1807001174E+01
          0                 5           2             5    6     1       0.9420552516E-02       5    6    1         0.5126803774E+00      0.7843589393E+00
          0                 6           2             5    6     1       0.4098807971E-02       5    6    1         0.2230694319E+00      0.3407039885E+00
          0                 7           2             5    6     1       0.1783310746E-02       5    6    1         0.9705509186E-01      0.1481145865E+00
          0                 8           2             5    6     1       0.7758724476E-03       5    6    1         0.4222653670E-01      0.6445146206E-01
          0                 9           2             5    6     1       0.3375617565E-03       5    6    1         0.1837162144E-01      0.2807677913E-01
          0                10           2             5    6     1       0.1468661454E-03       5    6    1         0.7993006104E-02      0.1224656857E-01
          0                11           1             5    6     1       0.6390013338E-04       5    6    1         0.3477598437E-02      0.5349528477E-02

    ------------------------------------------------
       NWT REQUIRED           11 OUTER ITERATIONS 
       AND A TOTAL OF         21 INNER ITERATIONS.
    ------------------------------------------------

 NO OUTPUT CONTROL FOR STRESS PERIOD   19   TIME STEP   21
 
 SOLVING FOR HEAD 
     PET DIFF ERROR     6    4    0.2245492387E-08    0.1500000053E-06
     PET DIFF ERROR     6    5    0.2245498963E-08    0.1500000053E-06
     PET DIFF ERROR     7    4    0.2245498998E-08    0.1500000053E-06
     PET DIFF ERROR     7    5    0.2245498963E-08    0.1500000053E-06
     PET DIFF ERROR     8    4    0.2245498948E-08    0.1500000053E-06
     PET DIFF ERROR     8    5    0.2245498899E-08    0.1500000053E-06
                                                   Max.-Head-Change                         Max.-Flux-Residual
  Residual-Control   Outer-Iter.   Inner-Iter.     Column Row Layer    Maximum-Head-Change  Column Row Layer    Maximum-Flux-Residual          L2-NORM 
          0                 1           2             4    7     1       0.4429321505E+00       4    7    1         0.2333321930E+02      0.4874519665E+02
     PET DIFF ERROR     6    4    0.2245492387E-08    0.1500000053E-06
     PET DIFF ERROR     6    5    0.2245498963E-08    0.1500000053E-06
     PET DIFF ERROR     7    4    0.2245498998E-08    0.1500000053E-06
     PET DIFF ERROR     7    5    0.2245498963E-08    0.1500000053E-06
     PET DIFF ERROR     8    4    0.2245498948E-08    0.1500000053E-06
     PET DIFF ERROR     8    5    0.2245498899E-08    0.1500000053E-06
          0                 2           2             4    7     1       0.1989299821E+00       4    7    1         0.1047564373E+02      0.2137983297E+02
     PET DIFF ERROR     6    4    0.2245492387E-08    0.1500000053E-06
     PET DIFF ERROR     6    5    0.2245498963E-08    0.1500000053E-06
     PET DIFF ERROR     7    4    0.2245498998E-08    0.1500000053E-06
     PET DIFF ERROR     7    5    0.2245498963E-08    0.1500000053E-06
     PET DIFF ERROR     8    4    0.2245498948E-08    0.1500000053E-06
     PET DIFF ERROR     8    5    0.2245498899E-08    0.1500000053E-06
          0                 3           2             4    7     1       0.8931892029E-01       4    7    1         0.4705209014E+01      0.9524964773E+01
     PET DIFF ERROR     6    4    0.2245492387E-08    0.1500000053E-06
     PET DIFF ERROR     6    5    0.2245498963E-08    0.1500000053E-06
     PET DIFF ERROR     7    4    0.2245498998E-08    0.1500000053E-06
     PET DIFF ERROR     7    5    0.2245498963E-08    0.1500000053E-06
     PET DIFF ERROR     8    4    0.2245498948E-08    0.1500000053E-06
     PET DIFF ERROR     8    5    0.2245498899E-08    0.1500000053E-06
          0                 4           2             4    7     1       0.4009375578E-01       4    7    1         0.2112485964E+01      0.4245901037E+01
     PET DIFF ERROR     6    4    0.2245492387E-08    0.1500000053E-06
     PET DIFF ERROR     6    5    0.2245498963E-08    0.1500000053E-06
     PET DIFF ERROR     7    4    0.2245498998E-08    0.1500000053E-06
     PET DIFF ERROR     7    5    0.2245498963E-08    0.1500000053E-06
     PET DIFF ERROR     8    4    0.2245498948E-08    0.1500000053E-06
     PET DIFF ERROR     8    5    0.2245498899E-08    0.1500000053E-06
          0                 5           2             4    7     1       0.1799321400E-01       4    7    1         0.9482208073E+00      0.1893976377E+01
     PET DIFF ERROR     6    4    0.2245492387E-08    0.1500000053E-06
     PET DIFF ERROR     6    5    0.2245498963E-08    0.1500000053E-06
     PET DIFF ERROR     7    4    0.2245498998E-08    0.1500000053E-06
     PET DIFF ERROR     7    5    0.2245498963E-08    0.1500000053E-06
     PET DIFF ERROR     8    4    0.2245498948E-08    0.1500000053E-06
     PET DIFF ERROR     8    5    0.2245498899E-08    0.1500000053E-06
          0                 6           2             4    7     1       0.8073234521E-02       4    7    1         0.4255234148E+00      0.8452931960E+00
     PET DIFF ERROR     6    4    0.2245492387E-08    0.1500000053E-06
     PET DIFF ERROR     6    5    0.2245498963E-08    0.1500000053E-06
     PET DIFF ERROR     7    4    0.2245498998E-08    0.1500000053E-06
     PET DIFF ERROR     7    5    0.2245498963E-08    0.1500000053E-06
     PET DIFF ERROR     8    4    0.2245498948E-08    0.1500000053E-06
     PET DIFF ERROR     8    5    0.2245498899E-08    0.1500000053E-06
          0                 7           2             4    7     1       0.3621601942E-02       4    7    1         0.1909175105E+00      0.3774406213E+00
     PET DIFF ERROR     6    4    0.2245492387E-08    0.1500000053E-06
     PET DIFF ERROR     6    5    0.2245498963E-08    0.1500000053E-06
     PET DIFF ERROR     7    4    0.2245498998E-08    0.1500000053E-06
     PET DIFF ERROR     7    5    0.2245498963E-08    0.1500000053E-06
     PET DIFF ERROR     8    4    0.2245498948E-08    0.1500000053E-06
     PET DIFF ERROR     8    5    0.2245498899E-08    0.1500000053E-06
          0                 8           2             4    7     1       0.1624333317E-02       4    7    1         0.8564136999E-01      0.1686065059E+00
     PET DIFF ERROR     6    4    0.2245492387E-08    0.1500000053E-06
     PET DIFF ERROR     6    5    0.2245498963E-08    0.1500000053E-06
     PET DIFF ERROR     7    4    0.2245498998E-08    0.1500000053E-06
     PET DIFF ERROR     7    5    0.2245498963E-08    0.1500000053E-06
     PET DIFF ERROR     8    4    0.2245498948E-08    0.1500000053E-06
     PET DIFF ERROR     8    5    0.2245498899E-08    0.1500000053E-06
          0                 9           2             4    7     1       0.7284124473E-03       4    7    1         0.3840996913E-01      0.7534662812E-01
     PET DIFF ERROR     6    4    0.2245492387E-08    0.1500000053E-06
     PET DIFF ERROR     6    5    0.2245498963E-08    0.1500000053E-06
     PET DIFF ERROR     7    4    0.2245498998E-08    0.1500000053E-06
     PET DIFF ERROR     7    5    0.2245498963E-08    0.1500000053E-06
     PET DIFF ERROR     8    4    0.2245498948E-08    0.1500000053E-06
     PET DIFF ERROR     8    5    0.2245498899E-08    0.1500000053E-06
          0                10           2             4    7     1       0.3265978718E-03       4    7    1         0.1722396847E-01      0.3368204701E-01
     PET DIFF ERROR     6    4    0.2245492387E-08    0.1500000053E-06
     PET DIFF ERROR     6    5    0.2245498963E-08    0.1500000053E-06
     PET DIFF ERROR     7    4    0.2245498998E-08    0.1500000053E-06
     PET DIFF ERROR     7    5    0.2245498963E-08    0.1500000053E-06
     PET DIFF ERROR     8    4    0.2245498948E-08    0.1500000053E-06
     PET DIFF ERROR     8    5    0.2245498899E-08    0.1500000053E-06
                                                   Max.-Head-Change                         Max.-Flux-Residual
  Residual-Control   Outer-Iter.   Inner-Iter.     Column Row Layer    Maximum-Head-Change  Column Row Layer    Maximum-Flux-Residual          L2-NORM 
          0                11           2             4    7     1       0.1464160616E-03       4    7    1         0.7722489808E-02      0.1506127220E-01
     PET DIFF ERROR     6    4    0.2245492387E-08    0.1500000053E-06
     PET DIFF ERROR     6    5    0.2245498963E-08    0.1500000053E-06
     PET DIFF ERROR     7    4    0.2245498998E-08    0.1500000053E-06
     PET DIFF ERROR     7    5    0.2245498963E-08    0.1500000053E-06
     PET DIFF ERROR     8    4    0.2245498948E-08    0.1500000053E-06
     PET DIFF ERROR     8    5    0.2245498899E-08    0.1500000053E-06
          0                12           1             4    7     1       0.6563094657E-04       4    7    1         0.3461958398E-02      0.6736565272E-02

    ------------------------------------------------
       NWT REQUIRED           12 OUTER ITERATIONS 
       AND A TOTAL OF         23 INNER ITERATIONS.
    ------------------------------------------------

 NO OUTPUT CONTROL FOR STRESS PERIOD   19   TIME STEP   22
     PET DIFF ERROR     6    4    0.2245492387E-08    0.1500000053E-06
     PET DIFF ERROR     6    5    0.2245498963E-08    0.1500000053E-06
     PET DIFF ERROR     7    4    0.2245498998E-08    0.1500000053E-06
     PET DIFF ERROR     7    5    0.2245498963E-08    0.1500000053E-06
     PET DIFF ERROR     8    4    0.2245498948E-08    0.1500000053E-06
     PET DIFF ERROR     8    5    0.2245498899E-08    0.1500000053E-06
 
 SOLVING FOR HEAD 
                                                   Max.-Head-Change                         Max.-Flux-Residual
  Residual-Control   Outer-Iter.   Inner-Iter.     Column Row Layer    Maximum-Head-Change  Column Row Layer    Maximum-Flux-Residual          L2-NORM 
          0                 1           2             5    8     1       0.4346342878E+00       5    8    1         0.2345708390E+02      0.5060964234E+02
          0                 2           2             5    8     1       0.1231982849E+00       5    8    1         0.6665226702E+01      0.1285938583E+02
          0                 3           2             5    8     1       0.5513241928E-01       5    8    1         0.2985650518E+01      0.5682168155E+01
          0                 4           2             5    8     1       0.2466324165E-01       5    8    1         0.1335882082E+01      0.2515149456E+01
          0                 5           2             5    8     1       0.1102925092E-01       5    8    1         0.5975716915E+00      0.1113652877E+01
          0                 6           2             5    8     1       0.4930666652E-02       5    8    1         0.2672136226E+00      0.4931684713E+00
          0                 7           2             5    8     1       0.2203631621E-02       5    8    1         0.1194521535E+00      0.2184249714E+00
          0                 8           2             5    8     1       0.9845893040E-03       5    8    1         0.5338320162E-01      0.9675310120E-01
          0                 9           2             5    8     1       0.4398070667E-03       5    8    1         0.2385061754E-01      0.4286265732E-01
          0                10           2             5    8     1       0.1964118693E-03       5    8    1         0.1065337124E-01      0.1899070371E-01
          0                11           1             5    8     1       0.8769573856E-04       5    8    1         0.4757450332E-02      0.8414869618E-02

    ------------------------------------------------
       NWT REQUIRED           11 OUTER ITERATIONS 
       AND A TOTAL OF         21 INNER ITERATIONS.
    ------------------------------------------------

 NO OUTPUT CONTROL FOR STRESS PERIOD   19   TIME STEP   23
 
 SOLVING FOR HEAD 
                                                   Max.-Head-Change                         Max.-Flux-Residual
  Residual-Control   Outer-Iter.   Inner-Iter.     Column Row Layer    Maximum-Head-Change  Column Row Layer    Maximum-Flux-Residual          L2-NORM 
          0                 1           2             4    8     1       0.3903245307E+00       5    8    1         0.2068855188E+02      0.4806923882E+02
          0                 2           2             4    8     1       0.1802737515E+00       4    8    1         0.9531141126E+01      0.2141127338E+02
          0                 3           2             4    8     1       0.8315182341E-01       4    8    1         0.4401808056E+01      0.9642059579E+01
          0                 4           2             4    8     1       0.3830838192E-01       4    8    1         0.2029822213E+01      0.4346591366E+01
          0                 5           2             4    8     1       0.1762992995E-01       4    8    1         0.9349574546E+00      0.1961410001E+01
          0                 6           2             4    8     1       0.8105650067E-02       4    8    1         0.4301967412E+00      0.8858481905E+00
          0                 7           2             4    8     1       0.3723453702E-02       4    8    1         0.1977566135E+00      0.4003863542E+00
          0                 8           2             4    8     1       0.1709073204E-02       4    8    1         0.9082860734E-01      0.1810870760E+00
          0                 9           2             4    8     1       0.7839055815E-03       4    8    1         0.4168473881E-01      0.8194979880E-01
          0                10           2             4    8     1       0.3593218068E-03       4    8    1         0.1911724979E-01      0.3710467020E-01
                                                   Max.-Head-Change                         Max.-Flux-Residual
  Residual-Control   Outer-Iter.   Inner-Iter.     Column Row Layer    Maximum-Head-Change  Column Row Layer    Maximum-Flux-Residual          L2-NORM 
          0                11           2             4    8     1       0.1646059221E-03       4    8    1         0.8761841700E-02      0.1680742742E-01
          0                12           1             4    8     1       0.7536537555E-04       4    8    1         0.4013394679E-02      0.7616246937E-02

    ------------------------------------------------
       NWT REQUIRED           12 OUTER ITERATIONS 
       AND A TOTAL OF         23 INNER ITERATIONS.
    ------------------------------------------------

 NO OUTPUT CONTROL FOR STRESS PERIOD   19   TIME STEP   24
 
 SOLVING FOR HEAD 
                                                   Max.-Head-Change                         Max.-Flux-Residual
  Residual-Control   Outer-Iter.   Inner-Iter.     Column Row Layer    Maximum-Head-Change  Column Row Layer    Maximum-Flux-Residual          L2-NORM 
          0                 1           2             5    7     1       0.4318811037E+00       5    7    1         0.2289771856E+02      0.5099804152E+02
          0                 2           2             4    6     1      -0.1691541310E+01       5    8    1        -0.9234249741E+02      0.2221211463E+03
          0                 3           2             5    7     1      -0.4609031945E+00       5    7    1        -0.2514998140E+02      0.5390234179E+02
          0                 4           2             5    7     1       0.3138693821E-01       5    7    1         0.1760527363E+01      0.3773375613E+01
          0                 5           2             5    7     1      -0.1249227779E-02       5    7    1        -0.7202378318E-01      0.1543638772E+00
          0                 6           1             5    7     1       0.1541495173E-04       5    7    1         0.9134393626E-03      0.1960246254E-02

    ------------------------------------------------
       NWT REQUIRED            6 OUTER ITERATIONS 
       AND A TOTAL OF         11 INNER ITERATIONS.
    ------------------------------------------------

 NO OUTPUT CONTROL FOR STRESS PERIOD   19   TIME STEP   25
 
 SOLVING FOR HEAD 
                                                   Max.-Head-Change                         Max.-Flux-Residual
  Residual-Control   Outer-Iter.   Inner-Iter.     Column Row Layer    Maximum-Head-Change  Column Row Layer    Maximum-Flux-Residual          L2-NORM 
          0                 1           2             4    6     1       0.1228572249E+00       4    6    1         0.6551149610E+01      0.1519931104E+02
          0                 2           2             4    7     1      -0.9763289231E-01       4    6    1        -0.5268903509E+01      0.1273986623E+02
          0                 3           2             4    7     1       0.6648382195E-02       4    6    1         0.3688210659E+00      0.8917022053E+00
          0                 4           2             4    7     1      -0.2645456126E-03       4    6    1        -0.1508481346E-01      0.3646738100E-01
          0                 5           1             4    7     1       0.3261961856E-05       4    6    1         0.1911710585E-03      0.4625379234E-03

    ------------------------------------------------
       NWT REQUIRED            5 OUTER ITERATIONS 
       AND A TOTAL OF          9 INNER ITERATIONS.
    ------------------------------------------------

 NO OUTPUT CONTROL FOR STRESS PERIOD   19   TIME STEP   26
 
 SOLVING FOR HEAD 
                                                   Max.-Head-Change                         Max.-Flux-Residual
  Residual-Control   Outer-Iter.   Inner-Iter.     Column Row Layer    Maximum-Head-Change  Column Row Layer    Maximum-Flux-Residual          L2-NORM 
          0                 1           2             5    6     1       0.2127139292E+00       5    6    1         0.1150070457E+02      0.2271658044E+02
          0                 2           2             5    6     1       0.9303122301E-01       5    6    1         0.5001391616E+01      0.9648093471E+01
          0                 3           2             5    6     1       0.4072558344E-01       5    6    1         0.2190028189E+01      0.4298124402E+01
          0                 4           2             4    7     1       0.1811242280E-01       5    6    1         0.9587227686E+00      0.1917366294E+01
          0                 5           2             4    7     1       0.8217566746E-02       4    7    1         0.4322586306E+00      0.8559696271E+00
          0                 6           2             4    7     1       0.3726039111E-02       4    7    1         0.1960918950E+00      0.3824042042E+00
          0                 7           2             4    7     1       0.1688528127E-02       4    7    1         0.8890315662E-01      0.1709543012E+00
          0                 8           2             4    7     1       0.7647924528E-03       4    7    1         0.4028419927E-01      0.7647282609E-01
          0                 9           2             4    7     1       0.3462338864E-03       4    7    1         0.1824440977E-01      0.3422812721E-01
          0                10           2             4    7     1       0.1566755547E-03       4    7    1         0.8258828686E-02      0.1532809385E-01
          0                11           1             4    7     1       0.7086837374E-04       4    7    1         0.3736934189E-02      0.6867577423E-02

    ------------------------------------------------
       NWT REQUIRED           11 OUTER ITERATIONS 
       AND A TOTAL OF         21 INNER ITERATIONS.
    ------------------------------------------------

 NO OUTPUT CONTROL FOR STRESS PERIOD   19   TIME STEP   27
 
 SOLVING FOR HEAD 
     PET DIFF ERROR     6    4    0.2245498899E-08    0.1500000053E-06
     PET DIFF ERROR     6    5    0.2245498913E-08    0.1500000053E-06
     PET DIFF ERROR     7    4    0.2245498948E-08    0.1500000053E-06
     PET DIFF ERROR     7    5    0.2245498899E-08    0.1500000053E-06
     PET DIFF ERROR     8    4    0.2245498899E-08    0.1500000053E-06
     PET DIFF ERROR     8    5    0.2245492387E-08    0.1500000053E-06
                                                   Max.-Head-Change                         Max.-Flux-Residual
  Residual-Control   Outer-Iter.   Inner-Iter.     Column Row Layer    Maximum-Head-Change  Column Row Layer    Maximum-Flux-Residual          L2-NORM 
          0                 1           2             4    6     1       0.4380671701E+00       4    6    1         0.2327963279E+02      0.4995950094E+02
     PET DIFF ERROR     6    4    0.2245498899E-08    0.1500000053E-06
     PET DIFF ERROR     6    5    0.2245498913E-08    0.1500000053E-06
     PET DIFF ERROR     7    4    0.2245498948E-08    0.1500000053E-06
     PET DIFF ERROR     7    5    0.2245498899E-08    0.1500000053E-06
     PET DIFF ERROR     8    4    0.2245498899E-08    0.1500000053E-06
     PET DIFF ERROR     8    5    0.2245492387E-08    0.1500000053E-06
          0                 2           2             4    6     1       0.1965180011E+00       4    6    1         0.1042968160E+02      0.2215667595E+02
     PET DIFF ERROR     6    4    0.2245498899E-08    0.1500000053E-06
     PET DIFF ERROR     6    5    0.2245498913E-08    0.1500000053E-06
     PET DIFF ERROR     7    4    0.2245498948E-08    0.1500000053E-06
     PET DIFF ERROR     7    5    0.2245498899E-08    0.1500000053E-06
     PET DIFF ERROR     8    4    0.2245498899E-08    0.1500000053E-06
     PET DIFF ERROR     8    5    0.2245492387E-08    0.1500000053E-06
          0                 3           2             4    6     1       0.8813662001E-01       4    6    1         0.4679992050E+01      0.9876111591E+01
     PET DIFF ERROR     6    4    0.2245498899E-08    0.1500000053E-06
     PET DIFF ERROR     6    5    0.2245498913E-08    0.1500000053E-06
     PET DIFF ERROR     7    4    0.2245498948E-08    0.1500000053E-06
     PET DIFF ERROR     7    5    0.2245498899E-08    0.1500000053E-06
     PET DIFF ERROR     8    4    0.2245498899E-08    0.1500000053E-06
     PET DIFF ERROR     8    5    0.2245492387E-08    0.1500000053E-06
          0                 4           2             4    6     1       0.3951928788E-01       4    6    1         0.2098748278E+01      0.4403749071E+01
     PET DIFF ERROR     6    4    0.2245498899E-08    0.1500000053E-06
     PET DIFF ERROR     6    5    0.2245498913E-08    0.1500000053E-06
     PET DIFF ERROR     7    4    0.2245498948E-08    0.1500000053E-06
     PET DIFF ERROR     7    5    0.2245498899E-08    0.1500000053E-06
     PET DIFF ERROR     8    4    0.2245498899E-08    0.1500000053E-06
     PET DIFF ERROR     8    5    0.2245492387E-08    0.1500000053E-06
          0                 5           2             4    6     1       0.1771597200E-01       4    6    1         0.9410188492E+00      0.1964556737E+01
     PET DIFF ERROR     6    4    0.2245498899E-08    0.1500000053E-06
     PET DIFF ERROR     6    5    0.2245498913E-08    0.1500000053E-06
     PET DIFF ERROR     7    4    0.2245498948E-08    0.1500000053E-06
     PET DIFF ERROR     7    5    0.2245498899E-08    0.1500000053E-06
     PET DIFF ERROR     8    4    0.2245498899E-08    0.1500000053E-06
     PET DIFF ERROR     8    5    0.2245492387E-08    0.1500000053E-06
          0                 6           2             4    6     1       0.7940147929E-02       4    6    1         0.4218289365E+00      0.8767213368E+00
     PET DIFF ERROR     6    4    0.2245498899E-08    0.1500000053E-06
     PET DIFF ERROR     6    5    0.2245498913E-08    0.1500000053E-06
     PET DIFF ERROR     7    4    0.2245498948E-08    0.1500000053E-06
     PET DIFF ERROR     7    5    0.2245498899E-08    0.1500000053E-06
     PET DIFF ERROR     8    4    0.2245498899E-08    0.1500000053E-06
     PET DIFF ERROR     8    5    0.2245492387E-08    0.1500000053E-06
          0                 7           2             4    7     1       0.3568429482E-02       4    6    1         0.1890529500E+00      0.3913802048E+00
     PET DIFF ERROR     6    4    0.2245498899E-08    0.1500000053E-06
     PET DIFF ERROR     6    5    0.2245498913E-08    0.1500000053E-06
     PET DIFF ERROR     7    4    0.2245498948E-08    0.1500000053E-06
     PET DIFF ERROR     7    5    0.2245498899E-08    0.1500000053E-06
     PET DIFF ERROR     8    4    0.2245498899E-08    0.1500000053E-06
     PET DIFF ERROR     8    5    0.2245492387E-08    0.1500000053E-06
          0                 8           2             4    7     1       0.1606862313E-02       4    6    1         0.8471171263E-01      0.1747668589E+00
     PET DIFF ERROR     6    4    0.2245498899E-08    0.1500000053E-06
     PET DIFF ERROR     6    5    0.2245498913E-08    0.1500000053E-06
     PET DIFF ERROR     7    4    0.2245498948E-08    0.1500000053E-06
     PET DIFF ERROR     7    5    0.2245498899E-08    0.1500000053E-06
     PET DIFF ERROR     8    4    0.2245498899E-08    0.1500000053E-06
     PET DIFF ERROR     8    5    0.2245492387E-08    0.1500000053E-06
          0                 9           2             4    7     1       0.7231589818E-03       4    7    1         0.3802380921E-01      0.7805983803E-01
     PET DIFF ERROR     6    4    0.2245498899E-08    0.1500000053E-06
     PET DIFF ERROR     6    5    0.2245498913E-08    0.1500000053E-06
     PET DIFF ERROR     7    4    0.2245498948E-08    0.1500000053E-06
     PET DIFF ERROR     7    5    0.2245498899E-08    0.1500000053E-06
     PET DIFF ERROR     8    4    0.2245498899E-08    0.1500000053E-06
     PET DIFF ERROR     8    5    0.2245492387E-08    0.1500000053E-06
          0                10           2             4    7     1       0.3252854670E-03       4    7    1         0.1711065974E-01      0.3487318278E-01
     PET DIFF ERROR     6    4    0.2245498899E-08    0.1500000053E-06
     PET DIFF ERROR     6    5    0.2245498913E-08    0.1500000053E-06
     PET DIFF ERROR     7    4    0.2245498948E-08    0.1500000053E-06
     PET DIFF ERROR     7    5    0.2245498899E-08    0.1500000053E-06
     PET DIFF ERROR     8    4    0.2245498899E-08    0.1500000053E-06
     PET DIFF ERROR     8    5    0.2245492387E-08    0.1500000053E-06
                                                   Max.-Head-Change                         Max.-Flux-Residual
  Residual-Control   Outer-Iter.   Inner-Iter.     Column Row Layer    Maximum-Head-Change  Column Row Layer    Maximum-Flux-Residual          L2-NORM 
          0                11           2             4    7     1       0.1462484397E-03       4    7    1         0.7695867324E-02      0.1558258543E-01
     PET DIFF ERROR     6    4    0.2245498899E-08    0.1500000053E-06
     PET DIFF ERROR     6    5    0.2245498913E-08    0.1500000053E-06
     PET DIFF ERROR     7    4    0.2245498948E-08    0.1500000053E-06
     PET DIFF ERROR     7    5    0.2245498899E-08    0.1500000053E-06
     PET DIFF ERROR     8    4    0.2245498899E-08    0.1500000053E-06
     PET DIFF ERROR     8    5    0.2245492387E-08    0.1500000053E-06
          0                12           1             4    7     1       0.6572513777E-04       4    7    1         0.3459773213E-02      0.6964042828E-02

    ------------------------------------------------
       NWT REQUIRED           12 OUTER ITERATIONS 
       AND A TOTAL OF         23 INNER ITERATIONS.
    ------------------------------------------------

 NO OUTPUT CONTROL FOR STRESS PERIOD   19   TIME STEP   28
     PET DIFF ERROR     6    4    0.2245498899E-08    0.1500000053E-06
     PET DIFF ERROR     6    5    0.2245498913E-08    0.1500000053E-06
     PET DIFF ERROR     7    4    0.2245498948E-08    0.1500000053E-06
     PET DIFF ERROR     7    5    0.2245498899E-08    0.1500000053E-06
     PET DIFF ERROR     8    4    0.2245498899E-08    0.1500000053E-06
     PET DIFF ERROR     8    5    0.2245492387E-08    0.1500000053E-06
 
 SOLVING FOR HEAD 
                                                   Max.-Head-Change                         Max.-Flux-Residual
  Residual-Control   Outer-Iter.   Inner-Iter.     Column Row Layer    Maximum-Head-Change  Column Row Layer    Maximum-Flux-Residual          L2-NORM 
          0                 1           2             5    8     1       0.4269469669E+00       5    8    1         0.2304248103E+02      0.4845623896E+02
          0                 2           2             5    8     1       0.1173101690E+00       5    8    1         0.6355151691E+01      0.1162631929E+02
          0                 3           2             5    8     1       0.5242603240E-01       5    8    1         0.2842137668E+01      0.5127698771E+01
          0                 4           2             5    8     1       0.2342243488E-01       5    8    1         0.1269997957E+01      0.2265896720E+01
          0                 5           2             5    8     1       0.1046159205E-01       5    8    1         0.5673756362E+00      0.1001536039E+01
          0                 6           2             5    8     1       0.4671439920E-02       5    8    1         0.2534045354E+00      0.4427333360E+00
          0                 7           2             5    8     1       0.2085436971E-02       5    8    1         0.1131480869E+00      0.1957355064E+00
          0                 8           2             5    8     1       0.9307698690E-03       5    8    1         0.5050963618E-01      0.8654571621E-01
          0                 9           2             5    8     1       0.4153285094E-03       5    8    1         0.2254245505E-01      0.3827084636E-01
          0                10           2             5    8     1       0.1852892490E-03       5    8    1         0.1005850158E-01      0.1692524769E-01
          0                11           1             5    8     1       0.8264608451E-04       5    8    1         0.4487198533E-02      0.7485909659E-02

    ------------------------------------------------
       NWT REQUIRED           11 OUTER ITERATIONS 
       AND A TOTAL OF         21 INNER ITERATIONS.
    ------------------------------------------------

 NO OUTPUT CONTROL FOR STRESS PERIOD   19   TIME STEP   29
 
 SOLVING FOR HEAD 
                                                   Max.-Head-Change                         Max.-Flux-Residual
  Residual-Control   Outer-Iter.   Inner-Iter.     Column Row Layer    Maximum-Head-Change  Column Row Layer    Maximum-Flux-Residual          L2-NORM 
          0                 1           2             4    8     1       0.3943008833E+00       4    8    1         0.2086136194E+02      0.4694543719E+02
          0                 2           2             4    8     1       0.1818602567E+00       4    8    1         0.9626522768E+01      0.2108362493E+02
          0                 3           2             4    8     1       0.8377854399E-01       4    8    1         0.4439412042E+01      0.9507360393E+01
          0                 4           2             4    8     1       0.3855363982E-01       4    8    1         0.2044675979E+01      0.4291288551E+01
          0                 5           2             4    8     1       0.1772478864E-01       4    8    1         0.9407573389E+00      0.1938582232E+01
          0                 6           2             4    8     1       0.8141792366E-02       4    8    1         0.4324344772E+00      0.8763873851E+00
          0                 7           2             4    8     1       0.3736954645E-02       4    8    1         0.1986064379E+00      0.3964449790E+00
          0                 8           2             4    8     1       0.1713981328E-02       4    8    1         0.9114466863E-01      0.1794482368E+00
          0                 9           2             4    8     1       0.7856208097E-03       4    8    1         0.4179892839E-01      0.8127782089E-01
          0                10           2             4    8     1       0.3598849541E-03       4    8    1         0.1915678180E-01      0.3681126399E-01
                                                   Max.-Head-Change                         Max.-Flux-Residual
  Residual-Control   Outer-Iter.   Inner-Iter.     Column Row Layer    Maximum-Head-Change  Column Row Layer    Maximum-Flux-Residual          L2-NORM 
          0                11           2             4    8     1       0.1647710044E-03       4    8    1         0.8774616903E-02      0.1668255518E-01
          0                12           1             4    8     1       0.7540225130E-04       4    8    1         0.4017021040E-02      0.7818001429E-02

    ------------------------------------------------
       NWT REQUIRED           12 OUTER ITERATIONS 
       AND A TOTAL OF         23 INNER ITERATIONS.
    ------------------------------------------------

 NO OUTPUT CONTROL FOR STRESS PERIOD   19   TIME STEP   30



 STREAM LISTING     PERIOD     19   STEP       30

 LAYER ROW COL. STREAM  RCH.  FLOW INTO     FLOW TO   FLOW OUT OF   OVRLND.     DIRECT     STREAM       STREAM     STREAM     STREAM   STREAMBED  STREAMBED
                SEG.NO.  NO.  STRM. RCH.    AQUIFER    STRM. RCH.    RUNOFF     PRECIP       ET          HEAD       DEPTH      WIDTH   CONDCTNC.   GRADIENT

   1    1    1     1     1    2.0250E+01  2.2212E-01   2.0028E+01  0.000E+00  0.000E+00  0.000E+00  1.09415E+03  1.102E+00  1.203E+01  5.414E-02  1.367E+00
   1    2    2     1     2    2.0028E+01  3.4298E-01   1.9685E+01  0.000E+00  0.000E+00  0.000E+00  1.08916E+03  1.098E+00  1.196E+01  8.370E-02  1.366E+00
   1    3    3     1     3    1.9685E+01  2.9127E-01   1.9394E+01  0.000E+00  0.000E+00  0.000E+00  1.08351E+03  1.093E+00  1.186E+01  7.117E-02  1.364E+00
   1    3    4     1     4    1.9394E+01  2.6721E-01   1.9127E+01  0.000E+00  0.000E+00  0.000E+00  1.07850E+03  1.088E+00  1.178E+01  6.536E-02  1.363E+00
   1    4    5     2     1    1.7127E+01  3.0866E-01   1.6818E+01  0.000E+00  0.000E+00  0.000E+00  1.07289E+03  9.572E-01  1.200E+01  7.800E-02  1.319E+00
   1    5    6     2     2    1.6818E+01  2.3687E-01   1.6581E+01  0.000E+00  0.000E+00  0.000E+00  1.06746E+03  9.479E-01  1.200E+01  6.000E-02  1.316E+00
   1    6    6     2     3    1.6581E+01  2.3639E-01   1.6345E+01  0.000E+00  0.000E+00  0.000E+00  1.06273E+03  9.398E-01  1.200E+01  6.000E-02  1.313E+00
   1    7    6     2     4    1.6345E+01  2.3590E-01   1.6109E+01  0.000E+00  0.000E+00  0.000E+00  1.05801E+03  9.317E-01  1.200E+01  6.000E-02  1.311E+00
   1    8    6     2     5    1.6109E+01  2.3541E-01   1.5873E+01  0.000E+00  0.000E+00  0.000E+00  1.05328E+03  9.236E-01  1.200E+01  6.000E-02  1.308E+00
   1    3    5     3     1    2.0000E+00  2.8252E-01   1.7175E+00  0.000E+00  0.000E+00  0.000E+00  1.07555E+03  1.909E+00  9.636E+00  7.227E-02  1.955E+00
   1    3    6     3     2    1.7175E+00  2.4905E-01   1.4684E+00  0.000E+00  0.000E+00  0.000E+00  1.07264E+03  1.727E+00  8.909E+00  6.682E-02  1.864E+00
   1    3    7     3     3    1.4684E+00  1.9718E-01   1.2712E+00  0.000E+00  0.000E+00  0.000E+00  1.06987E+03  1.555E+00  8.218E+00  5.547E-02  1.777E+00
   1    4    8     3     4    1.2712E+00  2.2567E-01   1.0456E+00  0.000E+00  0.000E+00  0.000E+00  1.06682E+03  1.364E+00  7.455E+00  6.709E-02  1.682E+00
   1    5    8     3     5    1.0456E+00  1.5790E-01   8.8768E-01  0.000E+00  0.000E+00  0.000E+00  1.06362E+03  1.164E+00  6.655E+00  4.991E-02  1.582E+00
   1    6    8     3     6    8.8768E-01  5.5980E-02   8.3170E-01  0.000E+00  0.000E+00  0.000E+00  1.06158E+03  1.036E+00  6.145E+00  1.844E-02  1.518E+00
   1    5   10     4     1    1.0000E+01  9.0919E-02   9.9091E+00  0.000E+00  0.000E+00  0.000E+00  1.07836E+03  6.368E-01  1.000E+01  2.500E-02  1.212E+00
   1    5    9     4     2    9.9091E+00  1.8158E-01   9.7275E+00  0.000E+00  0.000E+00  0.000E+00  1.07154E+03  6.315E-01  1.000E+01  5.000E-02  1.211E+00
   1    6    8     4     3    9.7275E+00  1.2689E-01   9.6006E+00  0.000E+00  0.000E+00  0.000E+00  1.06381E+03  6.256E-01  1.000E+01  3.500E-02  1.209E+00
   1    6    8     5     1    1.0432E+01  2.2686E-01   1.0205E+01  0.000E+00  0.000E+00  0.000E+00  1.05868E+03  6.790E-01  1.542E+01  6.166E-02  1.226E+00
   1    7    7     5     2    1.0205E+01  2.7894E-01   9.9265E+00  0.000E+00  0.000E+00  0.000E+00  1.05417E+03  6.732E-01  1.519E+01  7.594E-02  1.224E+00
   1    8    7     5     3    9.9265E+00  1.9221E-01   9.7343E+00  0.000E+00  0.000E+00  0.000E+00  1.04992E+03  6.676E-01  1.497E+01  5.241E-02  1.223E+00
   1    8    6     5     4    9.7343E+00  1.3577E-01   9.5985E+00  0.000E+00  0.000E+00  0.000E+00  1.04691E+03  6.637E-01  1.482E+01  3.706E-02  1.221E+00
   1    9    6     6     1    2.5472E+01  2.5387E-01   2.5218E+01  0.000E+00  0.000E+00  0.000E+00  1.04396E+03  1.231E+00  1.200E+01  6.000E-02  1.410E+00
   1   10    7     6     2    2.5218E+01  2.5342E-01   2.4965E+01  0.000E+00  0.000E+00  0.000E+00  1.03941E+03  1.224E+00  1.200E+01  6.000E-02  1.408E+00
   1   11    7     6     3    2.4965E+01  2.5298E-01   2.4712E+01  0.000E+00  0.000E+00  0.000E+00  1.03485E+03  1.216E+00  1.200E+01  6.000E-02  1.405E+00
   1   12    7     6     4    2.4712E+01  2.5253E-01   2.4459E+01  0.000E+00  0.000E+00  0.000E+00  1.03030E+03  1.209E+00  1.200E+01  6.000E-02  1.403E+00
   1   13    7     6     5    2.4459E+01  1.4387E-02   2.4445E+01  0.000E+00  0.000E+00  0.000E+00  1.02711E+03  1.205E+00  1.200E+01  2.400E-02  1.998E-01
   1   14    9     7     1    1.5000E+02  1.3823E+00   1.4862E+02  0.000E+00  0.000E+00  0.000E+00  1.03987E+03  2.288E+00  5.529E+01  5.593E-01  8.239E-01
   1   13    8     7     2    1.4862E+02  2.0073E+00   1.4661E+02  0.000E+00  0.000E+00  0.000E+00  1.03478E+03  2.279E+00  5.525E+01  6.147E-01  1.088E+00
   1   13    7     7     3    1.4661E+02  1.7718E+00   1.4484E+02  0.000E+00  0.000E+00  0.000E+00  1.02969E+03  2.268E+00  5.521E+01  5.584E-01  1.058E+00
   1   13    6     8     1    1.6928E+02  1.2057E+00   1.6808E+02  0.000E+00  0.000E+00  0.000E+00  1.02482E+03  2.944E+00  4.268E+01  4.349E-01  9.240E-01
   1   13    5     8     2    1.6808E+02  4.3037E-01   1.6765E+02  0.000E+00  0.000E+00  0.000E+00  1.01856E+03  2.938E+00  4.260E+01  4.342E-01  3.304E-01
   1   13    4     8     3    1.6765E+02 -1.5077E+00   1.6915E+02  0.000E+00  0.000E+00  0.000E+00  1.01232E+03  2.941E+00  4.265E+01  4.346E+00 -1.156E-01
   1   13    3     8     4    1.6915E+02 -3.1423E+00   1.7230E+02  0.000E+00  0.000E+00  0.000E+00  1.00608E+03  2.957E+00  4.288E+01  4.369E+00 -2.397E-01
   1   13    2     8     5    1.7230E+02 -2.3581E+00   1.7466E+02  0.000E+00  0.000E+00  0.000E+00  9.99850E+02  2.975E+00  4.313E+01  4.395E+00 -1.788E-01
   1   13    1     8     6    1.7466E+02 -1.9016E+00   1.7656E+02  0.000E+00  0.000E+00  0.000E+00  9.94863E+02  2.988E+00  4.333E+01  2.649E+00 -2.393E-01
   1    8    6     9     1    0.0000E+00  0.0000E+00   0.0000E+00  0.000E+00  0.000E+00  0.000E+00  1.07875E+03  0.000E+00  4.000E+00  0.000E+00  1.000E+00
   1    8    5     9     2    0.0000E+00  0.0000E+00   0.0000E+00  0.000E+00  0.000E+00  0.000E+00  1.07825E+03  0.000E+00  4.000E+00  0.000E+00  1.000E+00





UNSATURATED ZONE PACKAGE VOLUMETRIC BUDGET FOR  TIME STEP    30 STRESS PERIOD   19
  ------------------------------------------------------------------------------



     CUMULATIVE VOLUMES      L**3       RATES FOR THIS TIME STEP      L**3/T
     ------------------                 ------------------------

           IN:                                      IN:
           ---                                      ---
        INFILTRATION =  4082318171.5529          INFILTRATION =           0.8475

          OUT:                                     OUT:
          ----                                     ----
              UZF ET =   532805740.7382                UZF ET =          23.4810
        UZF RECHARGE =  2756846775.2954          UZF RECHARGE =         204.6960

            IN - OUT =   792665655.5192              IN - OUT =        -227.3295

          STORAGE:                                 STORAGE:
          --------                                 --------
      STORAGE CHANGE =   793312311.7433        STORAGE CHANGE =        -227.3464

 PERCENT DISCREPANCY IS DIFFERENCE BETWEEN IN-OUT MINUS CHANGE IN STORAGE
 DIVIDED BY THE AVERAGE OF IN AND OUT TIMES 100

 PERCENT DISCREPANCY =          -0.00     PERCENT DISCREPANCY =           0.01






1
  VOLUMETRIC BUDGET FOR AGRICULTURAL FIELDS AT  END OF TIME STEP   30, STRESS PERIOD  19
  ------------------------------------------------------------------------------

     CUMULATIVE VOLUMES      L**3       RATES FOR THIS TIME STEP      L**3/T
     ------------------                 ------------------------

           IN:                                      IN:
           ---                                      ---
               AG WELLS  =  3814467072.0000                 AG WELLS  =           0.0000
      DIVERSION SEGMENTS =   227690432.0000        DIVERSION SEGMENTS =           0.0000
           GW IRRIGATION =           0.0000             GW IRRIGATION =           0.0000
           SW IRRIGATION =           0.0000             SW IRRIGATION =           0.0000
        SYSTEM LOSSES GW =           0.0000          SYSTEM LOSSES GW =           0.0000
        SYSTEM LOSSES SW =           0.0000          SYSTEM LOSSES SW =           0.0000

                TOTAL IN =  4042157568.0000                  TOTAL IN =           0.0000

          OUT:                                     OUT:
          ----                                     ----
               AG WELLS  =           0.0000                 AG WELLS  =           0.0000
      DIVERSION SEGMENTS =           0.0000        DIVERSION SEGMENTS =           0.0000
           GW IRRIGATION =  3814467072.0000             GW IRRIGATION =           0.0000
           SW IRRIGATION =   227694944.0000             SW IRRIGATION =           0.0000
        SYSTEM LOSSES GW =           0.0000          SYSTEM LOSSES GW =           0.0000
        SYSTEM LOSSES SW =           0.0000          SYSTEM LOSSES SW =           0.0000

               TOTAL OUT =  4042161920.0000                 TOTAL OUT =           0.0000

                IN - OUT =       -4352.0000                  IN - OUT =           0.0000

     PERCENT DISCREPANCY =          -0.00         PERCENT DISCREPANCY =           0.00



1
  VOLUMETRIC BUDGET FOR ENTIRE MODEL AT END OF TIME STEP   30, STRESS PERIOD  19
  ------------------------------------------------------------------------------

     CUMULATIVE VOLUMES      L**3       RATES FOR THIS TIME STEP      L**3/T
     ------------------                 ------------------------

           IN:                                      IN:
           ---                                      ---
             STORAGE     =  4205296128.0000               STORAGE     =          18.2142
       CONSTANT HEAD     =           0.0000         CONSTANT HEAD     =           0.0000
     HEAD DEP BOUNDS     =    13664997.0000       HEAD DEP BOUNDS     =           0.2889
      STREAM LEAKAGE     =   570177472.0000        STREAM LEAKAGE     =          12.6031
        UZF RECHARGE     =  2756844288.0000          UZF RECHARGE     =         204.6961
               GW ET     =           0.0000                 GW ET     =           0.0000
     SURFACE LEAKAGE     =           0.0000       SURFACE LEAKAGE     =           0.0000
           AG WELLS      =           0.0000             AG WELLS      =           0.0000

                TOTAL IN =  7545982976.0000                  TOTAL IN =         235.8022

          OUT:                                     OUT:
          ----                                     ----
             STORAGE     =  3250960128.0000               STORAGE     =         226.5964
       CONSTANT HEAD     =           0.0000         CONSTANT HEAD     =           0.0000
     HEAD DEP BOUNDS     =    13670826.0000       HEAD DEP BOUNDS     =           0.2881
      STREAM LEAKAGE     =   466817920.0000        STREAM LEAKAGE     =           8.9097
        UZF RECHARGE     =           0.0000          UZF RECHARGE     =           0.0000
               GW ET     =           0.0000                 GW ET     =           0.0000
     SURFACE LEAKAGE     =           0.0000       SURFACE LEAKAGE     =           0.0000
           AG WELLS      =  3814467072.0000             AG WELLS      =           0.0000

               TOTAL OUT =  7545915904.0000                 TOTAL OUT =         235.7942

                IN - OUT =       67072.0000                  IN - OUT =       8.0566E-03

     PERCENT DISCREPANCY =           0.00         PERCENT DISCREPANCY =           0.00






         TIME SUMMARY AT END OF TIME STEP   30 IN STRESS PERIOD   19
                    SECONDS     MINUTES      HOURS       DAYS        YEARS
                    -----------------------------------------------------------
   TIME STEP LENGTH  87667.      1461.1      24.352      1.0147     2.77799E-03
 STRESS PERIOD TIME 2.63000E+06  43833.      730.56      30.440     8.33397E-02
         TOTAL TIME 4.74265E+07 7.90442E+05  13174.      548.92      1.5029    
1
1
                            STRESS PERIOD NO.   20, LENGTH =   2630000.    
                            -----------------------------------------------

                              NUMBER OF TIME STEPS =    30

                               MULTIPLIER FOR DELT =     1.000

                            INITIAL TIME STEP SIZE =   87666.66    

 REUSING NON-PARAMETER GHB CELLS FROM LAST STRESS PERIOD

      2 GHB CELLS

 REUSING STREAM SEGMENT DATA FROM LAST STRESS PERIOD



            AREAL INFILTRATION RATE
 READING ON UNIT   19 WITH FORMAT: (FREE)              

            1           2           3           4           5           6           7           8           9          10
 ........................................................................................................................
   1   1.0000E-10  2.0000E-10   0.000       0.000       0.000       0.000       0.000       0.000       0.000       0.000    
   2   2.0000E-10  1.0000E-10  2.0000E-10   0.000       0.000      8.0000E-10  8.0000E-10  5.0000E-10   0.000       0.000    
   3    0.000      5.0000E-10  1.0000E-10  1.0000E-10  8.0000E-10  8.0000E-10  5.0000E-10  5.0000E-10   0.000       0.000    
   4   8.0000E-10  5.0000E-10  1.0000E-10  1.0000E-10  1.0000E-10  1.0000E-10  1.0000E-10  1.0000E-10  2.0000E-10   0.000    
   5   8.0000E-10  5.0000E-10  1.0000E-10  1.0000E-10  1.0000E-10  1.0000E-10  1.0000E-10  1.0000E-10  1.0000E-10  1.0000E-10
   6   8.0000E-10  5.0000E-10  5.0000E-10  2.0000E-10  2.0000E-10  1.0000E-10  1.0000E-10  1.0000E-10  1.0000E-10  5.0000E-10
   7   8.0000E-10  5.0000E-10  5.0000E-10  2.0000E-10  2.0000E-10  1.0000E-10  1.0000E-10  2.0000E-10  2.0000E-10   0.000    
   8    0.000      5.0000E-10  5.0000E-10  2.0000E-10  2.0000E-10  1.0000E-10  1.0000E-10  2.0000E-10  5.0000E-10   0.000    
   9    0.000      5.0000E-10  5.0000E-10  2.0000E-10  2.0000E-10  1.0000E-10  1.0000E-10  2.0000E-10  5.0000E-10   0.000    
  10    0.000      5.0000E-10  5.0000E-10  2.0000E-10  2.0000E-10  1.0000E-10  1.0000E-10  2.0000E-10  5.0000E-10  8.0000E-10
  11    0.000      1.0000E-10  1.0000E-10  1.0000E-10  1.0000E-10  1.0000E-10  1.0000E-10  2.0000E-10  5.0000E-10   0.000    
  12   1.0000E-10  1.0000E-10  1.0000E-10  1.0000E-10  1.0000E-10  1.0000E-10  1.0000E-10  1.0000E-10  2.0000E-10   0.000    
  13   1.0000E-10  1.0000E-10  2.0000E-10  2.0000E-10  2.0000E-10  2.0000E-10  2.0000E-10  1.0000E-10  1.0000E-10   0.000    
  14    0.000      2.0000E-10  5.0000E-10  5.0000E-10  5.0000E-10  5.0000E-10  5.0000E-10  2.0000E-10  1.0000E-10   0.000    
  15    0.000       0.000      8.0000E-10  8.0000E-10  8.0000E-10  8.0000E-10   0.000       0.000       0.000       0.000    

                  ET RATE =  4.000000E-07

 USING ET EXTINCTION DEPTH FROM PREVIOUS STRESS PERIOD. CURRENT PERIOD IS:      20

 USING EXTINCTION WATER CONTENT FROM PREVIOUS STRESS PERIOD. CURRENT PERIOD IS:      20

 USING AIR ENTRY PRESSURE FROM PREVIOUS STRESS PERIOD. CURRENT PERIOD IS:      20

 USING ROOT PRESSURE HEAD FROM PREVIOUS STRESS PERIOD. CURRENT PERIOD IS:      20

 USING ROOT ACTIVITY FROM PREVIOUS STRESS PERIOD. CURRENT PERIOD IS:      20

 PROCESSING AG STRESS PERIOD DATA

 READING AG STRESS PERIOD DATA

 READING IRRIGATION SEGMENT

 READING IRRIGATION WELL

 READING SUPPLEMENTAL WELL

 END PROCESSING AG STRESS PERIOD DATA OPTIONS
 
 SOLVING FOR HEAD 
                                                   Max.-Head-Change                         Max.-Flux-Residual
  Residual-Control   Outer-Iter.   Inner-Iter.     Column Row Layer    Maximum-Head-Change  Column Row Layer    Maximum-Flux-Residual          L2-NORM 
          0                 1           2             5    7     1       0.4182241352E+00       5    7    1         0.2214671600E+02      0.4965505546E+02
          0                 2           2             4    6     1      -0.1700288695E+01       4    6    1        -0.9258993140E+02      0.2227206601E+03
          0                 3           2             5    7     1      -0.4511311103E+00       5    7    1        -0.2458752959E+02      0.5331801916E+02
          0                 4           2             5    7     1       0.3072197156E-01       5    7    1         0.1721189916E+01      0.3732598085E+01
          0                 5           2             5    7     1      -0.1222759128E-02       5    7    1        -0.7041431328E-01      0.1526991781E+00
          0                 6           1             5    7     1       0.1508834403E-04       5    7    1         0.8930275694E-03      0.1936736617E-02

    ------------------------------------------------
       NWT REQUIRED            6 OUTER ITERATIONS 
       AND A TOTAL OF         11 INNER ITERATIONS.
    ------------------------------------------------

 OUTPUT CONTROL FOR STRESS PERIOD   20   TIME STEP    1
    PRINT BUDGET
    SAVE BUDGET
    SAVE BUDGET
    SAVE HEAD FOR ALL LAYERS
 UBDSV1 SAVING "         STORAGE" ON UNIT 102 AT TIME STEP  1, STRESS PERIOD  20
 UBDSV2 SAVING "   CONSTANT HEAD" ON UNIT 102 AT TIME STEP  1, STRESS PERIOD  20
 UBDSV1 SAVING "FLOW RIGHT FACE " ON UNIT 102 AT TIME STEP  1, STRESS PERIOD  20
 UBDSV1 SAVING "FLOW FRONT FACE " ON UNIT 102 AT TIME STEP  1, STRESS PERIOD  20

  HEAD DEP BOUNDS   PERIOD   20   STEP     1
 BOUNDARY      1   LAYER   1   ROW    13   COL     1   RATE   -0.288000    
 BOUNDARY      2   LAYER   1   ROW    14   COL     9   RATE    0.288931    



 STREAM LISTING     PERIOD     20   STEP        1

 LAYER ROW COL. STREAM  RCH.  FLOW INTO     FLOW TO   FLOW OUT OF   OVRLND.     DIRECT     STREAM       STREAM     STREAM     STREAM   STREAMBED  STREAMBED
                SEG.NO.  NO.  STRM. RCH.    AQUIFER    STRM. RCH.    RUNOFF     PRECIP       ET          HEAD       DEPTH      WIDTH   CONDCTNC.   GRADIENT

   1    1    1     1     1    2.0250E+01  2.2212E-01   2.0028E+01  0.000E+00  0.000E+00  0.000E+00  1.09415E+03  1.102E+00  1.203E+01  5.414E-02  1.367E+00
   1    2    2     1     2    2.0028E+01  3.4298E-01   1.9685E+01  0.000E+00  0.000E+00  0.000E+00  1.08916E+03  1.098E+00  1.196E+01  8.370E-02  1.366E+00
   1    3    3     1     3    1.9685E+01  2.9127E-01   1.9394E+01  0.000E+00  0.000E+00  0.000E+00  1.08351E+03  1.093E+00  1.186E+01  7.117E-02  1.364E+00
   1    3    4     1     4    1.9394E+01  2.6721E-01   1.9127E+01  0.000E+00  0.000E+00  0.000E+00  1.07850E+03  1.088E+00  1.178E+01  6.536E-02  1.363E+00
   1    4    5     2     1    1.7127E+01  3.0866E-01   1.6818E+01  0.000E+00  0.000E+00  0.000E+00  1.07289E+03  9.572E-01  1.200E+01  7.800E-02  1.319E+00
   1    5    6     2     2    1.6818E+01  2.3687E-01   1.6581E+01  0.000E+00  0.000E+00  0.000E+00  1.06746E+03  9.479E-01  1.200E+01  6.000E-02  1.316E+00
   1    6    6     2     3    1.6581E+01  2.3639E-01   1.6345E+01  0.000E+00  0.000E+00  0.000E+00  1.06273E+03  9.398E-01  1.200E+01  6.000E-02  1.313E+00
   1    7    6     2     4    1.6345E+01  2.3590E-01   1.6109E+01  0.000E+00  0.000E+00  0.000E+00  1.05801E+03  9.317E-01  1.200E+01  6.000E-02  1.311E+00
   1    8    6     2     5    1.6109E+01  2.3541E-01   1.5873E+01  0.000E+00  0.000E+00  0.000E+00  1.05328E+03  9.236E-01  1.200E+01  6.000E-02  1.308E+00
   1    3    5     3     1    2.0000E+00  2.8252E-01   1.7175E+00  0.000E+00  0.000E+00  0.000E+00  1.07555E+03  1.909E+00  9.636E+00  7.227E-02  1.955E+00
   1    3    6     3     2    1.7175E+00  2.4905E-01   1.4684E+00  0.000E+00  0.000E+00  0.000E+00  1.07264E+03  1.727E+00  8.909E+00  6.682E-02  1.864E+00
   1    3    7     3     3    1.4684E+00  1.9718E-01   1.2712E+00  0.000E+00  0.000E+00  0.000E+00  1.06987E+03  1.555E+00  8.218E+00  5.547E-02  1.777E+00
   1    4    8     3     4    1.2712E+00  2.2567E-01   1.0456E+00  0.000E+00  0.000E+00  0.000E+00  1.06682E+03  1.364E+00  7.455E+00  6.709E-02  1.682E+00
   1    5    8     3     5    1.0456E+00  1.5790E-01   8.8768E-01  0.000E+00  0.000E+00  0.000E+00  1.06362E+03  1.164E+00  6.655E+00  4.991E-02  1.582E+00
   1    6    8     3     6    8.8768E-01  5.5980E-02   8.3170E-01  0.000E+00  0.000E+00  0.000E+00  1.06158E+03  1.036E+00  6.145E+00  1.844E-02  1.518E+00
   1    5   10     4     1    1.0000E+01  9.0919E-02   9.9091E+00  0.000E+00  0.000E+00  0.000E+00  1.07836E+03  6.368E-01  1.000E+01  2.500E-02  1.212E+00
   1    5    9     4     2    9.9091E+00  1.8158E-01   9.7275E+00  0.000E+00  0.000E+00  0.000E+00  1.07154E+03  6.315E-01  1.000E+01  5.000E-02  1.211E+00
   1    6    8     4     3    9.7275E+00  1.2689E-01   9.6006E+00  0.000E+00  0.000E+00  0.000E+00  1.06381E+03  6.256E-01  1.000E+01  3.500E-02  1.209E+00
   1    6    8     5     1    1.0432E+01  2.2686E-01   1.0205E+01  0.000E+00  0.000E+00  0.000E+00  1.05868E+03  6.790E-01  1.542E+01  6.166E-02  1.226E+00
   1    7    7     5     2    1.0205E+01  2.7894E-01   9.9265E+00  0.000E+00  0.000E+00  0.000E+00  1.05417E+03  6.732E-01  1.519E+01  7.594E-02  1.224E+00
   1    8    7     5     3    9.9265E+00  1.9221E-01   9.7343E+00  0.000E+00  0.000E+00  0.000E+00  1.04992E+03  6.676E-01  1.497E+01  5.241E-02  1.223E+00
   1    8    6     5     4    9.7343E+00  1.3577E-01   9.5985E+00  0.000E+00  0.000E+00  0.000E+00  1.04691E+03  6.637E-01  1.482E+01  3.706E-02  1.221E+00
   1    9    6     6     1    9.5985E+00  2.2097E-01   9.3776E+00  0.000E+00  0.000E+00  0.000E+00  1.04341E+03  6.828E-01  1.200E+01  6.000E-02  1.228E+00
   1   10    7     6     2    9.3776E+00  2.2039E-01   9.1572E+00  0.000E+00  0.000E+00  0.000E+00  1.03885E+03  6.732E-01  1.200E+01  6.000E-02  1.224E+00
   1   11    7     6     3    9.1572E+00  2.1981E-01   8.9374E+00  0.000E+00  0.000E+00  0.000E+00  1.03430E+03  6.636E-01  1.200E+01  6.000E-02  1.221E+00
   1   12    7     6     4    8.9374E+00  2.1923E-01   8.7181E+00  0.000E+00  0.000E+00  0.000E+00  1.02974E+03  6.539E-01  1.200E+01  6.000E-02  1.218E+00
   1   13    7     6     5    8.7181E+00  1.0542E-03   8.7171E+00  0.000E+00  0.000E+00  0.000E+00  1.02656E+03  6.489E-01  1.200E+01  2.400E-02  1.464E-02
   1   14    9     7     1    1.5000E+02  1.3824E+00   1.4862E+02  0.000E+00  0.000E+00  0.000E+00  1.03987E+03  2.288E+00  5.529E+01  5.593E-01  8.239E-01
   1   13    8     7     2    1.4862E+02  2.0075E+00   1.4661E+02  0.000E+00  0.000E+00  0.000E+00  1.03478E+03  2.279E+00  5.525E+01  6.147E-01  1.089E+00
   1   13    7     7     3    1.4661E+02  1.7721E+00   1.4484E+02  0.000E+00  0.000E+00  0.000E+00  1.02969E+03  2.268E+00  5.521E+01  5.584E-01  1.058E+00
   1   13    6     8     1    1.5356E+02  1.1186E+00   1.5244E+02  0.000E+00  0.000E+00  0.000E+00  1.02471E+03  2.838E+00  4.115E+01  4.193E-01  8.892E-01
   1   13    5     8     2    1.5244E+02  3.7122E-01   1.5207E+02  0.000E+00  0.000E+00  0.000E+00  1.01846E+03  2.833E+00  4.107E+01  4.185E-01  2.956E-01
   1   13    4     8     3    1.5207E+02 -1.8720E+00   1.5394E+02  0.000E+00  0.000E+00  0.000E+00  1.01221E+03  2.838E+00  4.115E+01  4.193E+00 -1.488E-01
   1   13    3     8     4    1.5394E+02 -3.4466E+00   1.5738E+02  0.000E+00  0.000E+00  0.000E+00  1.00598E+03  2.856E+00  4.142E+01  4.220E+00 -2.722E-01
   1   13    2     8     5    1.5738E+02 -2.6807E+00   1.6006E+02  0.000E+00  0.000E+00  0.000E+00  9.99752E+02  2.877E+00  4.172E+01  4.251E+00 -2.102E-01
   1   13    1     8     6    1.6006E+02 -2.0794E+00   1.6214E+02  0.000E+00  0.000E+00  0.000E+00  9.94768E+02  2.893E+00  4.195E+01  2.565E+00 -2.702E-01
   1    8    6     9     1    1.5873E+01  0.0000E+00   1.5873E+01  0.000E+00  0.000E+00  0.000E+00  1.08174E+03  2.990E+00  4.000E+00  0.000E+00  1.997E+00
   1    8    5     9     2    1.5873E+01  0.0000E+00   1.5873E+01  0.000E+00  0.000E+00  0.000E+00  1.08124E+03  2.990E+00  4.000E+00  0.000E+00  1.997E+00



 UBDSV3 SAVING "           GW ET" ON UNIT  61 AT TIME STEP  1, STRESS PERIOD  20
 UBDSV3 SAVING "    UZF RECHARGE" ON UNIT  61 AT TIME STEP  1, STRESS PERIOD  20
 UBDSV3 SAVING " SURFACE LEAKAGE" ON UNIT  61 AT TIME STEP  1, STRESS PERIOD  20
 UBDSV3 SAVING "       HORT+DUNN" ON UNIT  61 AT TIME STEP  1, STRESS PERIOD  20
 UBDSV3 SAVING "  STORAGE CHANGE" ON UNIT  61 AT TIME STEP  1, STRESS PERIOD  20


UNSATURATED ZONE PACKAGE VOLUMETRIC BUDGET FOR  TIME STEP     1 STRESS PERIOD   20
  ------------------------------------------------------------------------------



     CUMULATIVE VOLUMES      L**3       RATES FOR THIS TIME STEP      L**3/T
     ------------------                 ------------------------

           IN:                                      IN:
           ---                                      ---
        INFILTRATION =  4136384067.0487          INFILTRATION =         616.7213

          OUT:                                     OUT:
          ----                                     ----
              UZF ET =   538137407.9841                UZF ET =          60.8175
        UZF RECHARGE =  2756846775.2954          UZF RECHARGE =       0.0000E+00

            IN - OUT =   841399883.7692              IN - OUT =         555.9038

          STORAGE:                                 STORAGE:
          --------                                 --------
      STORAGE CHANGE =   842045300.5849        STORAGE CHANGE =         555.8896

 PERCENT DISCREPANCY IS DIFFERENCE BETWEEN IN-OUT MINUS CHANGE IN STORAGE
 DIVIDED BY THE AVERAGE OF IN AND OUT TIMES 100

 PERCENT DISCREPANCY =          -0.00     PERCENT DISCREPANCY =           0.00






 

            AG WELLS      PERIOD   20   STEP   1
 AG WELL      1   LAYER   1   ROW     6   COL     4   RATE    -100.000    
 AG WELL      2   LAYER   1   ROW     6   COL     5   RATE    -100.000    
 AG WELL      3   LAYER   1   ROW     7   COL     4   RATE    -100.000    
 AG WELL      4   LAYER   1   ROW     7   COL     5   RATE    -100.000    
 AG WELL      5   LAYER   1   ROW     8   COL     4   RATE    -100.000    
 AG WELL      6   LAYER   1   ROW     8   COL     5   RATE    -100.000    
 
 

   DIVERSION SEGMENTS     PERIOD   20   STEP   1
 SEGMENT      9   RATE     15.8735    
 
 

        SW IRRIGATION     PERIOD   20   STEP   1
 SEGMENT      9   ROW     6   COL     4   RATE     2.64564    
 SEGMENT      9   ROW     6   COL     5   RATE     2.64564    
 SEGMENT      9   ROW     7   COL     4   RATE     2.64564    
 SEGMENT      9   ROW     7   COL     5   RATE     2.64564    
 SEGMENT      9   ROW     8   COL     4   RATE     2.64564    
 SEGMENT      9   ROW     8   COL     5   RATE     2.64564    
 
 

        GW IRRIGATION     PERIOD   20   STEP   1
 AG WELL      1   ROW     6   COL     4   RATE     100.000    
 AG WELL      2   ROW     6   COL     5   RATE     100.000    
 AG WELL      3   ROW     7   COL     4   RATE     100.000    
 AG WELL      4   ROW     7   COL     5   RATE     100.000    
 AG WELL      5   ROW     8   COL     4   RATE     100.000    
 AG WELL      6   ROW     8   COL     5   RATE     100.000    
 
1
  VOLUMETRIC BUDGET FOR AGRICULTURAL FIELDS AT  END OF TIME STEP    1, STRESS PERIOD  20
  ------------------------------------------------------------------------------

     CUMULATIVE VOLUMES      L**3       RATES FOR THIS TIME STEP      L**3/T
     ------------------                 ------------------------

           IN:                                      IN:
           ---                                      ---
               AG WELLS  =  3867067136.0000                 AG WELLS  =         600.0000
      DIVERSION SEGMENTS =   229082016.0000        DIVERSION SEGMENTS =          15.8735
           GW IRRIGATION =           0.0000             GW IRRIGATION =           0.0000
           SW IRRIGATION =           0.0000             SW IRRIGATION =           0.0000
        SYSTEM LOSSES GW =           0.0000          SYSTEM LOSSES GW =           0.0000
        SYSTEM LOSSES SW =           0.0000          SYSTEM LOSSES SW =           0.0000

                TOTAL IN =  4096149248.0000                  TOTAL IN =         615.8735

          OUT:                                     OUT:
          ----                                     ----
               AG WELLS  =           0.0000                 AG WELLS  =           0.0000
      DIVERSION SEGMENTS =           0.0000        DIVERSION SEGMENTS =           0.0000
           GW IRRIGATION =  3867067136.0000             GW IRRIGATION =         600.0000
           SW IRRIGATION =   229086544.0000             SW IRRIGATION =          15.8738
        SYSTEM LOSSES GW =           0.0000          SYSTEM LOSSES GW =           0.0000
        SYSTEM LOSSES SW =           0.0000          SYSTEM LOSSES SW =           0.0000

               TOTAL OUT =  4096153600.0000                 TOTAL OUT =         615.8738

                IN - OUT =       -4352.0000                  IN - OUT =      -3.6621E-04

     PERCENT DISCREPANCY =          -0.00         PERCENT DISCREPANCY =          -0.00




 HEAD WILL BE SAVED ON UNIT   62 AT END OF TIME STEP    1, STRESS PERIOD   20
1
  VOLUMETRIC BUDGET FOR ENTIRE MODEL AT END OF TIME STEP    1, STRESS PERIOD  20
  ------------------------------------------------------------------------------

     CUMULATIVE VOLUMES      L**3       RATES FOR THIS TIME STEP      L**3/T
     ------------------                 ------------------------

           IN:                                      IN:
           ---                                      ---
             STORAGE     =  4257713408.0000               STORAGE     =         597.9167
       CONSTANT HEAD     =           0.0000         CONSTANT HEAD     =           0.0000
     HEAD DEP BOUNDS     =    13690327.0000       HEAD DEP BOUNDS     =           0.2889
      STREAM LEAKAGE     =   571256768.0000        STREAM LEAKAGE     =          12.3116
        UZF RECHARGE     =  2756844288.0000          UZF RECHARGE     =           0.0000
               GW ET     =           0.0000                 GW ET     =           0.0000
     SURFACE LEAKAGE     =           0.0000       SURFACE LEAKAGE     =           0.0000
           AG WELLS      =           0.0000             AG WELLS      =           0.0000

                TOTAL IN =  7599504384.0000                  TOTAL IN =         610.5173

          OUT:                                     OUT:
          ----                                     ----
             STORAGE     =  3250973440.0000               STORAGE     =           0.1505
       CONSTANT HEAD     =           0.0000         CONSTANT HEAD     =           0.0000
     HEAD DEP BOUNDS     =    13696074.0000       HEAD DEP BOUNDS     =           0.2880
      STREAM LEAKAGE     =   467701472.0000        STREAM LEAKAGE     =          10.0786
        UZF RECHARGE     =           0.0000          UZF RECHARGE     =           0.0000
               GW ET     =           0.0000                 GW ET     =           0.0000
     SURFACE LEAKAGE     =           0.0000       SURFACE LEAKAGE     =           0.0000
           AG WELLS      =  3867067136.0000             AG WELLS      =         600.0000

               TOTAL OUT =  7599437824.0000                 TOTAL OUT =         610.5172

                IN - OUT =       66560.0000                  IN - OUT =       1.2207E-04

     PERCENT DISCREPANCY =           0.00         PERCENT DISCREPANCY =           0.00






         TIME SUMMARY AT END OF TIME STEP    1 IN STRESS PERIOD   20
                    SECONDS     MINUTES      HOURS       DAYS        YEARS
                    -----------------------------------------------------------
   TIME STEP LENGTH  87667.      1461.1      24.352      1.0147     2.77799E-03
 STRESS PERIOD TIME  87667.      1461.1      24.352      1.0147     2.77799E-03
         TOTAL TIME 4.75142E+07 7.91903E+05  13198.      549.93      1.5056    
1
 
 SOLVING FOR HEAD 
                                                   Max.-Head-Change                         Max.-Flux-Residual
  Residual-Control   Outer-Iter.   Inner-Iter.     Column Row Layer    Maximum-Head-Change  Column Row Layer    Maximum-Flux-Residual          L2-NORM 
          0                 1           2             4    7     1       0.1079802772E+00       4    7    1         0.5665799076E+01      0.1341797420E+02
          0                 2           2             4    7     1      -0.1874155488E+01       4    7    1        -0.1005665860E+03      0.2462056909E+03
          0                 3           2             4    7     1       0.1276030822E+00       4    7    1         0.7038304141E+01      0.1723128327E+02
          0                 4           2             4    7     1      -0.5077541965E-02       4    7    1        -0.2878645874E+00      0.7048096944E+00
          0                 5           1             4    7     1       0.6260813643E-04       4    7    1         0.3647552791E-02      0.8975826084E-02

    ------------------------------------------------
       NWT REQUIRED            5 OUTER ITERATIONS 
       AND A TOTAL OF          9 INNER ITERATIONS.
    ------------------------------------------------

 NO OUTPUT CONTROL FOR STRESS PERIOD   20   TIME STEP    2
 
 SOLVING FOR HEAD 
                                                   Max.-Head-Change                         Max.-Flux-Residual
  Residual-Control   Outer-Iter.   Inner-Iter.     Column Row Layer    Maximum-Head-Change  Column Row Layer    Maximum-Flux-Residual          L2-NORM 
          0                 1           2             5    6     1       0.1452821211E+00       5    6    1         0.7870160767E+01      0.1849041116E+02
          0                 2           2             4    7     1      -0.1875008535E+01       5    6    1        -0.1007869981E+03      0.2466314910E+03
          0                 3           2             4    7     1       0.1276615135E+00       5    6    1         0.7053103005E+01      0.1726108268E+02
          0                 4           2             4    7     1      -0.5079865303E-02       5    6    1        -0.2883778131E+00      0.7060064584E+00
          0                 5           1             4    7     1       0.6263678657E-04       4    6    1         0.3649315226E-02      0.8983478273E-02

    ------------------------------------------------
       NWT REQUIRED            5 OUTER ITERATIONS 
       AND A TOTAL OF          9 INNER ITERATIONS.
    ------------------------------------------------

 NO OUTPUT CONTROL FOR STRESS PERIOD   20   TIME STEP    3
 
 SOLVING FOR HEAD 
                                                   Max.-Head-Change                         Max.-Flux-Residual
  Residual-Control   Outer-Iter.   Inner-Iter.     Column Row Layer    Maximum-Head-Change  Column Row Layer    Maximum-Flux-Residual          L2-NORM 
          0                 1           2             5    6     1       0.1902605318E+00       5    6    1         0.1033804578E+02      0.2367723870E+02
          0                 2           2             4    7     1      -0.1875932741E+01       5    6    1        -0.1010337730E+03      0.2470426426E+03
          0                 3           2             4    7     1       0.1277247664E+00       5    6    1         0.7070472589E+01      0.1728989118E+02
          0                 4           2             4    7     1      -0.5082380613E-02       5    6    1        -0.2890976161E+00      0.7071690088E+00
          0                 5           1             4    7     1       0.6266780438E-04       5    6    1         0.3657646723E-02      0.8992038510E-02

    ------------------------------------------------
       NWT REQUIRED            5 OUTER ITERATIONS 
       AND A TOTAL OF          9 INNER ITERATIONS.
    ------------------------------------------------

 NO OUTPUT CONTROL FOR STRESS PERIOD   20   TIME STEP    4
 
 SOLVING FOR HEAD 
                                                   Max.-Head-Change                         Max.-Flux-Residual
  Residual-Control   Outer-Iter.   Inner-Iter.     Column Row Layer    Maximum-Head-Change  Column Row Layer    Maximum-Flux-Residual          L2-NORM 
          0                 1           2             5    6     1       0.2328902168E+00       5    6    1         0.1267527558E+02      0.2876478249E+02
          0                 2           2             4    7     1      -0.1876921295E+01       5    6    1        -0.1012674791E+03      0.2474397283E+03
          0                 3           2             4    7     1       0.1277923781E+00       5    6    1         0.7086922022E+01      0.1731774364E+02
          0                 4           2             4    7     1      -0.5085069480E-02       5    6    1        -0.2897792203E+00      0.7082979394E+00
          0                 5           1             4    7     1       0.6270096223E-04       5    6    1         0.3666885272E-02      0.9001379282E-02

    ------------------------------------------------
       NWT REQUIRED            5 OUTER ITERATIONS 
       AND A TOTAL OF          9 INNER ITERATIONS.
    ------------------------------------------------

 NO OUTPUT CONTROL FOR STRESS PERIOD   20   TIME STEP    5
 
 SOLVING FOR HEAD 
                                                   Max.-Head-Change                         Max.-Flux-Residual
  Residual-Control   Outer-Iter.   Inner-Iter.     Column Row Layer    Maximum-Head-Change  Column Row Layer    Maximum-Flux-Residual          L2-NORM 
          0                 1           2             5    6     1       0.2733234115E+00       5    6    1         0.1489039677E+02      0.3368532222E+02
          0                 2           2             4    7     1      -0.1877967833E+01       5    6    1        -0.1014889715E+03      0.2478233153E+03
          0                 3           2             4    7     1       0.1278639166E+00       5    6    1         0.7102511455E+01      0.1734467459E+02
          0                 4           2             4    7     1      -0.5087914696E-02       5    6    1        -0.2904251197E+00      0.7093938239E+00
          0                 5           1             4    7     1       0.6273604684E-04       5    6    1         0.3675635314E-02      0.9011288944E-02

    ------------------------------------------------
       NWT REQUIRED            5 OUTER ITERATIONS 
       AND A TOTAL OF          9 INNER ITERATIONS.
    ------------------------------------------------

 NO OUTPUT CONTROL FOR STRESS PERIOD   20   TIME STEP    6
 
 SOLVING FOR HEAD 
                                                   Max.-Head-Change                         Max.-Flux-Residual
  Residual-Control   Outer-Iter.   Inner-Iter.     Column Row Layer    Maximum-Head-Change  Column Row Layer    Maximum-Flux-Residual          L2-NORM 
          0                 1           2             5    6     1       0.3117009777E+00       5    6    1         0.1699131295E+02      0.3841738881E+02
          0                 2           2             4    7     1      -0.1879066402E+01       5    6    1        -0.1016990410E+03      0.2481939504E+03
          0                 3           2             4    7     1       0.1279389775E+00       5    6    1         0.7117296519E+01      0.1737071791E+02
          0                 4           2             4    7     1      -0.5090900176E-02       5    6    1        -0.2910376218E+00      0.7104573066E+00
          0                 5           1             4    7     1       0.6277286175E-04       5    6    1         0.3683928279E-02      0.9021712460E-02

    ------------------------------------------------
       NWT REQUIRED            5 OUTER ITERATIONS 
       AND A TOTAL OF          9 INNER ITERATIONS.
    ------------------------------------------------

 NO OUTPUT CONTROL FOR STRESS PERIOD   20   TIME STEP    7
 
 SOLVING FOR HEAD 
                                                   Max.-Head-Change                         Max.-Flux-Residual
  Residual-Control   Outer-Iter.   Inner-Iter.     Column Row Layer    Maximum-Head-Change  Column Row Layer    Maximum-Flux-Residual          L2-NORM 
          0                 1           2             5    6     1       0.3481535137E+00       5    8    1         0.1904855891E+02      0.4295693381E+02
          0                 2           2             4    7     1      -0.1880211418E+01       5    8    1        -0.1019047474E+03      0.2485521623E+03
          0                 3           2             4    7     1       0.1280171817E+00       5    8    1         0.7131701302E+01      0.1739590681E+02
          0                 4           2             4    7     1      -0.5094010823E-02       5    8    1        -0.2916248459E+00      0.7114890471E+00
          0                 5           1             4    7     1       0.6281121932E-04       5    6    1         0.3691793298E-02      0.9032265900E-02

    ------------------------------------------------
       NWT REQUIRED            5 OUTER ITERATIONS 
       AND A TOTAL OF          9 INNER ITERATIONS.
    ------------------------------------------------

 NO OUTPUT CONTROL FOR STRESS PERIOD   20   TIME STEP    8
 
 SOLVING FOR HEAD 
                                                   Max.-Head-Change                         Max.-Flux-Residual
  Residual-Control   Outer-Iter.   Inner-Iter.     Column Row Layer    Maximum-Head-Change  Column Row Layer    Maximum-Flux-Residual          L2-NORM 
          0                 1           2             5    8     1       0.5219666567E+00       5    8    1         0.2862902721E+02      0.5113486034E+02
          0                 2           2             4    7     1      -0.1881268835E+01       5    6    1        -0.1020877876E+03      0.2418447789E+03
          0                 3           2             5    8     1      -0.3696876878E+00       5    8    1        -0.2115704030E+02      0.2645748252E+02
          0                 4           2             5    8     1       0.2516650500E-01       5    8    1         0.1474276059E+01      0.1614313924E+01
          0                 5           1             5    8     1      -0.1001685878E-02       5    8    1        -0.6005283030E-01      0.6075425936E-01
          0                 6           1             5    8     1       0.1236031953E-04       5    8    1         0.7566046295E-03      0.7756882159E-03

    ------------------------------------------------
       NWT REQUIRED            6 OUTER ITERATIONS 
       AND A TOTAL OF         10 INNER ITERATIONS.
    ------------------------------------------------

 NO OUTPUT CONTROL FOR STRESS PERIOD   20   TIME STEP    9
 
 SOLVING FOR HEAD 
                                                   Max.-Head-Change                         Max.-Flux-Residual
  Residual-Control   Outer-Iter.   Inner-Iter.     Column Row Layer    Maximum-Head-Change  Column Row Layer    Maximum-Flux-Residual          L2-NORM 
          0                 1           2             5    8     1       0.1508935643E+01       5    8    1         0.8302001169E+02      0.9495289699E+02
          0                 2           2             4    7     1      -0.1882236116E+01       4    6    1        -0.1017752825E+03      0.2309879141E+03
          0                 3           2             5    8     1      -0.5704438971E+00       5    8    1        -0.3253601191E+02      0.3554131105E+02
          0                 4           2             5    8     1      -0.3344809172E+00       5    8    1        -0.1894579163E+02      0.1895523158E+02
          0                 5           2             5    8     1      -0.1961245784E+00       5    8    1        -0.1111317144E+02      0.1111319009E+02
          0                 6           2             5    8     1      -0.1149997044E+00       5    8    1        -0.6516024373E+01      0.6516039675E+01
          0                 7           2             5    8     1      -0.6743144417E-01       5    8    1        -0.3820651760E+01      0.3820660698E+01
          0                 8           2             5    8     1      -0.3953917680E-01       5    8    1        -0.2240239495E+01      0.2240244748E+01
          0                 9           2             5    8     1      -0.2318415459E-01       5    8    1        -0.1313565166E+01      0.1313568251E+01
          0                10           2             5    8     1      -0.1359417412E-01       5    8    1        -0.7702074531E+00      0.7702092633E+00
                                                   Max.-Head-Change                         Max.-Flux-Residual
  Residual-Control   Outer-Iter.   Inner-Iter.     Column Row Layer    Maximum-Head-Change  Column Row Layer    Maximum-Flux-Residual          L2-NORM 
          0                11           2             5    8     1      -0.7970984982E-02       5    8    1        -0.4516083810E+00      0.4516094429E+00
          0                12           1             5    8     1      -0.4673783174E-02       5    8    1        -0.2647975845E+00      0.2647982073E+00
          0                13           1             5    8     1      -0.2740453428E-02       5    8    1        -0.1552614156E+00      0.1552617808E+00
          0                14           1             5    8     1      -0.1606843281E-02       5    8    1        -0.9103542234E-01      0.9103563650E-01
          0                15           1             5    8     1      -0.9421538071E-03       5    8    1        -0.5337704679E-01      0.5337717236E-01
          0                16           1             5    8     1      -0.5524172888E-03       5    8    1        -0.3129650791E-01      0.3129658154E-01
          0                17           1             5    8     1      -0.3238991981E-03       5    8    1        -0.1834992950E-01      0.1834997268E-01
          0                18           1             5    8     1      -0.1899107858E-03       5    8    1        -0.1075895474E-01      0.1075898006E-01
          0                19           1             5    8     1      -0.1113490542E-03       5    8    1        -0.6308163084E-02      0.6308177932E-02
          0                20           1             5    8     1      -0.6528607690E-04       5    8    1        -0.3698561880E-02      0.3698570594E-02

    ------------------------------------------------
       NWT REQUIRED           20 OUTER ITERATIONS 
       AND A TOTAL OF         31 INNER ITERATIONS.
    ------------------------------------------------

 NO OUTPUT CONTROL FOR STRESS PERIOD   20   TIME STEP   10
 
 SOLVING FOR HEAD 
                                                   Max.-Head-Change                         Max.-Flux-Residual
  Residual-Control   Outer-Iter.   Inner-Iter.     Column Row Layer    Maximum-Head-Change  Column Row Layer    Maximum-Flux-Residual          L2-NORM 
          0                 1           2             5    8     1       0.2299999220E+01       5    8    1         0.1257291396E+03      0.1615110200E+03
          0                 2           2             4    7     1      -0.1868673410E+01       4    6    1        -0.1019033766E+03      0.1876143952E+03
          0                 3           2             5    7     1      -0.8177509356E+00       5    7    1        -0.4561147418E+02      0.7491548778E+02
          0                 4           2             4    8     1      -0.4141584411E+00       4    8    1        -0.2291074210E+02      0.3380525743E+02
          0                 5           2             5    6     1      -0.2312476999E+00       5    6    1        -0.1309422495E+02      0.1475952155E+02
          0                 6           2             5    6     1      -0.1224207465E+00       5    6    1        -0.6931860792E+01      0.7938090170E+01
          0                 7           2             5    8     1      -0.4002896005E-01       5    8    1        -0.2268671245E+01      0.2320077681E+01
          0                 8           2             5    8     1      -0.2346567818E-01       5    8    1        -0.1329841282E+01      0.1329992121E+01
          0                 9           2             5    8     1      -0.1375592630E-01       5    8    1        -0.7795674611E+00      0.7795686091E+00
          0                10           2             5    8     1      -0.8063882149E-02       5    8    1        -0.4569859272E+00      0.4569865792E+00
                                                   Max.-Head-Change                         Max.-Flux-Residual
  Residual-Control   Outer-Iter.   Inner-Iter.     Column Row Layer    Maximum-Head-Change  Column Row Layer    Maximum-Flux-Residual          L2-NORM 
          0                11           1             5    8     1      -0.4727112215E-02       5    8    1        -0.2678860222E+00      0.2678864047E+00
          0                12           1             5    8     1      -0.2771053733E-02       5    8    1        -0.1570343777E+00      0.1570346019E+00
          0                13           1             5    8     1      -0.1624393382E-02       5    8    1        -0.9205275173E-01      0.9205288318E-01
          0                14           1             5    8     1      -0.9522142263E-03       5    8    1        -0.5396051331E-01      0.5396059038E-01
          0                15           1             5    8     1      -0.5581813056E-03       5    8    1        -0.3163097491E-01      0.3163102008E-01
          0                16           1             5    8     1      -0.3271998251E-03       5    8    1        -0.1854155958E-01      0.1854158607E-01
          0                17           1             5    8     1      -0.1917997266E-03       5    8    1        -0.1086868756E-01      0.1086870309E-01
          0                18           1             5    8     1      -0.1124294399E-03       5    8    1        -0.6370963223E-02      0.6370972321E-02
          0                19           1             5    8     1      -0.6590361673E-04       5    8    1        -0.3734480834E-02      0.3734486173E-02

    ------------------------------------------------
       NWT REQUIRED           19 OUTER ITERATIONS 
       AND A TOTAL OF         29 INNER ITERATIONS.
    ------------------------------------------------

 NO OUTPUT CONTROL FOR STRESS PERIOD   20   TIME STEP   11
 
 SOLVING FOR HEAD 
                                                   Max.-Head-Change                         Max.-Flux-Residual
  Residual-Control   Outer-Iter.   Inner-Iter.     Column Row Layer    Maximum-Head-Change  Column Row Layer    Maximum-Flux-Residual          L2-NORM 
          0                 1           2             5    6     1       0.2279007784E+01       5    6    1         0.1237025992E+03      0.2321306015E+03
          0                 2           2             4    7     1      -0.1491021341E+01       4    7    1        -0.8122870766E+02      0.1279321115E+03
          0                 3           2             4    6     1      -0.7791873545E+00       4    6    1        -0.4290229639E+02      0.6902440867E+02
          0                 4           2             5    7     1      -0.2928606265E+00       5    7    1        -0.1629332410E+02      0.2884594572E+02
          0                 5           2             5    7     1      -0.1757175864E+00       5    7    1        -0.9752586844E+01      0.1600574835E+02
          0                 6           2             5    7     1      -0.1054567782E+00       5    7    1        -0.5852302747E+01      0.9650893571E+01
          0                 7           2             5    7     1      -0.6330440351E-01       5    7    1        -0.3512263091E+01      0.5828538676E+01
          0                 8           2             5    7     1      -0.3800918915E-01       5    7    1        -0.2108380165E+01      0.3520359610E+01
          0                 9           2             5    7     1      -0.2282623531E-01       5    7    1        -0.1265919584E+01      0.2126432269E+01
          0                10           2             5    7     1      -0.1371093654E-01       5    7    1        -0.7602461368E+00      0.1284547953E+01
                                                   Max.-Head-Change                         Max.-Flux-Residual
  Residual-Control   Outer-Iter.   Inner-Iter.     Column Row Layer    Maximum-Head-Change  Column Row Layer    Maximum-Flux-Residual          L2-NORM 
          0                11           2             5    7     1      -0.8237274371E-02       5    7    1        -0.4566561158E+00      0.7760343315E+00
          0                12           2             5    7     1      -0.4949714847E-02       5    7    1        -0.2743517089E+00      0.4688579425E+00
          0                13           2             5    7     1      -0.2974773465E-02       5    7    1        -0.1648564809E+00      0.2832888310E+00
          0                14           2             5    7     1      -0.1788140643E-02       5    7    1        -0.9907889798E-01      0.1711763414E+00
          0                15           2             5    7     1      -0.1075030105E-02       5    7    1        -0.5955662523E-01      0.1034385845E+00
          0                16           2             5    7     1      -0.6464098990E-03       5    7    1        -0.3580551195E-01      0.6250927979E-01
          0                17           2             5    7     1      -0.3887417168E-03       5    7    1        -0.2152969307E-01      0.3777706269E-01
          0                18           2             5    7     1      -0.2338177856E-03       5    7    1        -0.1294766039E-01      0.2283139305E-01
          0                19           2             5    7     1      -0.1406548639E-03       5    7    1        -0.7787673708E-02      0.1379926715E-01
          0                20           1             5    7     1      -0.8462350079E-04       5    7    1        -0.4684732115E-02      0.8340612783E-02

    ------------------------------------------------
       NWT REQUIRED           20 OUTER ITERATIONS 
       AND A TOTAL OF         39 INNER ITERATIONS.
    ------------------------------------------------

 NO OUTPUT CONTROL FOR STRESS PERIOD   20   TIME STEP   12
 
 SOLVING FOR HEAD 
                                                   Max.-Head-Change                         Max.-Flux-Residual
  Residual-Control   Outer-Iter.   Inner-Iter.     Column Row Layer    Maximum-Head-Change  Column Row Layer    Maximum-Flux-Residual          L2-NORM 
          0                 1           2             5    7     1       0.2321685815E+01       5    6    1         0.1237256213E+03      0.2729052939E+03
          0                 2           2             4    7     1      -0.9416078102E+00       4    7    1        -0.5135384366E+02      0.8652468925E+02
          0                 3           2             4    7     1      -0.5765700769E+00       4    7    1        -0.3142835654E+02      0.5300380508E+02
          0                 4           2             4    7     1      -0.3531931850E+00       4    7    1        -0.1924484762E+02      0.3251668307E+02
          0                 5           2             4    7     1      -0.2164380019E+00       4    7    1        -0.1178913665E+02      0.1995384454E+02
          0                 6           2             4    7     1      -0.1326786411E+00       4    7    1        -0.7224547890E+01      0.1224804857E+02
          0                 7           2             4    7     1      -0.8135829501E-01       4    7    1        -0.4428790374E+01      0.7519856345E+01
          0                 8           2             4    7     1      -0.4990273518E-01       4    7    1        -0.2715765001E+01      0.4617860304E+01
          0                 9           2             4    7     1      -0.3061667295E-01       4    7    1        -0.1665789513E+01      0.2836277369E+01
          0                10           2             4    7     1      -0.1878854434E-01       4    7    1        -0.1022017534E+01      0.1742300032E+01
                                                   Max.-Head-Change                         Max.-Flux-Residual
  Residual-Control   Outer-Iter.   Inner-Iter.     Column Row Layer    Maximum-Head-Change  Column Row Layer    Maximum-Flux-Residual          L2-NORM 
          0                11           2             4    7     1      -0.1153243254E-01       4    7    1        -0.6271872509E+00      0.1070420887E+01
          0                12           2             4    7     1      -0.7079999486E-02       4    7    1        -0.3849709266E+00      0.6577120897E+00
          0                13           2             4    7     1      -0.4347329425E-02       4    7    1        -0.2363428035E+00      0.4041661651E+00
          0                14           2             4    7     1      -0.2669820045E-02       4    7    1        -0.1451219566E+00      0.2483825640E+00
          0                15           2             4    7     1      -0.1639853972E-02       4    7    1        -0.8912371883E-01      0.1526561115E+00
          0                16           2             4    7     1      -0.1007363577E-02       4    7    1        -0.5474148672E-01      0.9382850640E-01
          0                17           2             4    7     1      -0.6188990108E-03       4    7    1        -0.3362770040E-01      0.5767386909E-01
          0                18           2             4    7     1      -0.3802776800E-03       4    7    1        -0.2065996989E-01      0.3545224234E-01
          0                19           2             4    7     1      -0.2336817564E-03       4    7    1        -0.1269431291E-01      0.2179343893E-01
          0                20           1             4    7     1      -0.1436109323E-03       4    7    1        -0.7800656933E-02      0.1339746811E-01
          0                21           1             4    7     1      -0.8826429357E-04       4    7    1        -0.4793927401E-02      0.8236304697E-02

    ------------------------------------------------
       NWT REQUIRED           21 OUTER ITERATIONS 
       AND A TOTAL OF         40 INNER ITERATIONS.
    ------------------------------------------------

 NO OUTPUT CONTROL FOR STRESS PERIOD   20   TIME STEP   13
 
 SOLVING FOR HEAD 
                                                   Max.-Head-Change                         Max.-Flux-Residual
  Residual-Control   Outer-Iter.   Inner-Iter.     Column Row Layer    Maximum-Head-Change  Column Row Layer    Maximum-Flux-Residual          L2-NORM 
          0                 1           2             4    6     1       0.2367398132E+01       4    6    1         0.1256238355E+03      0.2927513683E+03
          0                 2           2             5    8     1      -0.7404747342E+00       5    8    1        -0.4103284813E+02      0.7716032230E+02
          0                 3           2             5    8     1      -0.3623641517E+00       5    8    1        -0.2008784654E+02      0.4070401395E+02
          0                 4           2             5    8     1      -0.2178877165E+00       5    8    1        -0.1207106933E+02      0.2492627735E+02
          0                 5           2             5    8     1      -0.1311109983E+00       5    8    1        -0.7258665608E+01      0.1526899834E+02
          0                 6           2             5    8     1      -0.7895084212E-01       5    8    1        -0.4368061971E+01      0.9356319687E+01
          0                 7           2             5    8     1      -0.4757494820E-01       5    8    1        -0.2630459680E+01      0.5734905177E+01
          0                 8           2             5    8     1      -0.2868775469E-01       5    8    1        -0.1585177696E+01      0.3516113678E+01
          0                 9           2             4    7     1      -0.1745666447E-01       5    8    1        -0.9559173291E+00      0.2156278171E+01
          0                10           2             4    7     1      -0.1083420973E-01       4    7    1        -0.5834209806E+00      0.1322642836E+01
                                                   Max.-Head-Change                         Max.-Flux-Residual
  Residual-Control   Outer-Iter.   Inner-Iter.     Column Row Layer    Maximum-Head-Change  Column Row Layer    Maximum-Flux-Residual          L2-NORM 
          0                11           2             4    7     1      -0.6722092806E-02       4    7    1        -0.3620749541E+00      0.8114613960E+00
          0                12           2             4    7     1      -0.4169508015E-02       4    7    1        -0.2246396301E+00      0.4979353494E+00
          0                13           2             4    7     1      -0.2585474288E-02       4    7    1        -0.1393309179E+00      0.3055982731E+00
          0                14           2             4    7     1      -0.1602776767E-02       4    7    1        -0.8639407056E-01      0.1875837992E+00
          0                15           2             4    7     1      -0.9933121775E-03       4    7    1        -0.5355475250E-01      0.1151596864E+00
          0                16           2             4    7     1      -0.6154333679E-03       4    7    1        -0.3318885391E-01      0.7070678094E-01
          0                17           2             4    7     1      -0.3812076847E-03       4    7    1        -0.2056218776E-01      0.4341824854E-01
          0                18           2             4    7     1      -0.2360643677E-03       4    7    1        -0.1273596897E-01      0.2666427594E-01
          0                19           2             4    7     1      -0.1461471413E-03       4    7    1        -0.7886478676E-02      0.1637681898E-01
          0                20           1             4    7     1      -0.9045743379E-04       4    7    1        -0.4882313520E-02      0.1005930336E-01

    ------------------------------------------------
       NWT REQUIRED           20 OUTER ITERATIONS 
       AND A TOTAL OF         39 INNER ITERATIONS.
    ------------------------------------------------

 NO OUTPUT CONTROL FOR STRESS PERIOD   20   TIME STEP   14
 
 SOLVING FOR HEAD 
                                                   Max.-Head-Change                         Max.-Flux-Residual
  Residual-Control   Outer-Iter.   Inner-Iter.     Column Row Layer    Maximum-Head-Change  Column Row Layer    Maximum-Flux-Residual          L2-NORM 
          0                 1           2             4    6     1       0.2330853415E+01       4    6    1         0.1237984685E+03      0.2778918727E+03
          0                 2           2             5    8     1      -0.8417112056E+00       5    8    1        -0.4657102480E+02      0.9094471947E+02
          0                 3           2             4    8     1      -0.4498058351E+00       4    8    1        -0.2459563717E+02      0.4768234703E+02
          0                 4           2             5    7     1      -0.2366636107E+00       5    7    1        -0.1291040652E+02      0.2627228436E+02
          0                 5           2             5    7     1      -0.1447839590E+00       5    7    1        -0.7898331173E+01      0.1609962082E+02
          0                 6           2             5    7     1      -0.8857204770E-01       5    7    1        -0.4831868051E+01      0.9868223673E+01
          0                 7           2             5    7     1      -0.5418330040E-01       5    7    1        -0.2955854059E+01      0.6050039088E+01
          0                 8           2             5    7     1      -0.3314604502E-01       5    7    1        -0.1808190800E+01      0.3709938470E+01
          0                 9           2             5    7     1      -0.2027683066E-01       5    7    1        -0.1106123667E+01      0.2275402645E+01
          0                10           2             5    7     1      -0.1240437152E-01       5    7    1        -0.6766526421E+00      0.1395812282E+01
                                                   Max.-Head-Change                         Max.-Flux-Residual
  Residual-Control   Outer-Iter.   Inner-Iter.     Column Row Layer    Maximum-Head-Change  Column Row Layer    Maximum-Flux-Residual          L2-NORM 
          0                11           2             5    7     1      -0.7588564920E-02       5    7    1        -0.4139374356E+00      0.8563820440E+00
          0                12           2             5    7     1      -0.4642567694E-02       5    7    1        -0.2532294758E+00      0.5255025335E+00
          0                13           2             5    7     1      -0.2840362050E-02       5    7    1        -0.1549201430E+00      0.3225106652E+00
          0                14           2             5    7     1      -0.1737836295E-02       5    7    1        -0.9478044061E-01      0.1979570391E+00
          0                15           2             5    7     1      -0.1063325598E-02       5    7    1        -0.5798952618E-01      0.1215209925E+00
          0                16           2             5    7     1      -0.6506511118E-03       5    7    1        -0.3548157623E-01      0.7460729933E-01
          0                17           2             4    7     1      -0.4010771926E-03       5    7    1        -0.2171105779E-01      0.4580969522E-01
          0                18           2             4    7     1      -0.2484596258E-03       4    7    1        -0.1340037157E-01      0.2813041987E-01
          0                19           2             4    7     1      -0.1538691796E-03       4    7    1        -0.8300885948E-02      0.1727565960E-01
          0                20           1             4    7     1      -0.9526226306E-04       4    7    1        -0.5140443371E-02      0.1061035135E-01

    ------------------------------------------------
       NWT REQUIRED           20 OUTER ITERATIONS 
       AND A TOTAL OF         39 INNER ITERATIONS.
    ------------------------------------------------

 NO OUTPUT CONTROL FOR STRESS PERIOD   20   TIME STEP   15
 
 SOLVING FOR HEAD 
                                                   Max.-Head-Change                         Max.-Flux-Residual
  Residual-Control   Outer-Iter.   Inner-Iter.     Column Row Layer    Maximum-Head-Change  Column Row Layer    Maximum-Flux-Residual          L2-NORM 
          0                 1           2             4    6     1       0.2107325684E+01       4    6    1         0.1117605678E+03      0.2674060497E+03
          0                 2           2             5    8     1      -0.8478954080E+00       5    8    1        -0.4691056366E+02      0.9805188475E+02
          0                 3           2             4    8     1      -0.5042138266E+00       4    8    1        -0.2756898204E+02      0.5198488656E+02
          0                 4           2             4    7     1      -0.2409465615E+00       5    7    1        -0.1307756439E+02      0.2924608095E+02
          0                 5           2             4    7     1      -0.1489299277E+00       4    7    1        -0.8055137603E+01      0.1674583391E+02
          0                 6           2             4    7     1      -0.9188569981E-01       4    7    1        -0.4975127705E+01      0.1019207321E+02
          0                 7           2             4    7     1      -0.5668363276E-01       4    7    1        -0.3069090221E+01      0.6242354501E+01
          0                 8           2             4    7     1      -0.3496717532E-01       4    7    1        -0.1893269683E+01      0.3824352925E+01
          0                 9           2             4    7     1      -0.2157011964E-01       4    7    1        -0.1167906509E+01      0.2343587650E+01
          0                10           2             4    7     1      -0.1330547069E-01       4    7    1        -0.7204311408E+00      0.1436511485E+01
                                                   Max.-Head-Change                         Max.-Flux-Residual
  Residual-Control   Outer-Iter.   Inner-Iter.     Column Row Layer    Maximum-Head-Change  Column Row Layer    Maximum-Flux-Residual          L2-NORM 
          0                11           2             4    7     1      -0.8207117655E-02       4    7    1        -0.4443879381E+00      0.8807109324E+00
          0                12           2             4    7     1      -0.5062106440E-02       4    7    1        -0.2741034551E+00      0.5400655352E+00
          0                13           2             4    7     1      -0.3122122409E-02       4    7    1        -0.1690622790E+00      0.3312389223E+00
          0                14           2             4    7     1      -0.1925505647E-02       4    7    1        -0.1042693736E+00      0.2031943787E+00
          0                15           2             4    7     1      -0.1187447330E-02       4    7    1        -0.6430471993E-01      0.1246670161E+00
          0                16           2             4    7     1      -0.7322465543E-03       4    7    1        -0.3965550434E-01      0.7649897015E-01
          0                17           2             4    7     1      -0.4515155475E-03       4    7    1        -0.2445329590E-01      0.4694818384E-01
          0                18           2             4    7     1      -0.2783938579E-03       4    7    1        -0.1507799581E-01      0.2881619426E-01
          0                19           2             4    7     1      -0.1716396094E-03       4    7    1        -0.9296539495E-02      0.1768906465E-01
          0                20           1             4    7     1      -0.1058146587E-03       4    7    1        -0.5731520946E-02      0.1085974607E-01
          0                21           1             4    7     1      -0.6522953531E-04       4    7    1        -0.3533367843E-02      0.6667721681E-02

    ------------------------------------------------
       NWT REQUIRED           21 OUTER ITERATIONS 
       AND A TOTAL OF         40 INNER ITERATIONS.
    ------------------------------------------------

 NO OUTPUT CONTROL FOR STRESS PERIOD   20   TIME STEP   16
 
 SOLVING FOR HEAD 
                                                   Max.-Head-Change                         Max.-Flux-Residual
  Residual-Control   Outer-Iter.   Inner-Iter.     Column Row Layer    Maximum-Head-Change  Column Row Layer    Maximum-Flux-Residual          L2-NORM 
          0                 1           2             4    7     1       0.2092001803E+01       4    6    1         0.1108250944E+03      0.2659173076E+03
          0                 2           2             5    8     1      -0.8554049434E+00       5    8    1        -0.4721731907E+02      0.1017369912E+03
          0                 3           2             4    8     1      -0.5087498451E+00       4    8    1        -0.2773859213E+02      0.5530780409E+02
          0                 4           2             4    8     1      -0.3098906666E+00       4    8    1        -0.1698027051E+02      0.3006928568E+02
          0                 5           2             4    7     1      -0.1505994993E+00       4    7    1        -0.8127471249E+01      0.1634724572E+02
          0                 6           2             4    7     1      -0.9276201789E-01       4    7    1        -0.5032163316E+01      0.9498142340E+01
          0                 7           2             4    7     1      -0.5698688975E-01       4    7    1        -0.3097690633E+01      0.5760700210E+01
          0                 8           2             4    7     1      -0.3497196973E-01       4    7    1        -0.1902545429E+01      0.3517415471E+01
          0                 9           2             4    7     1      -0.2145208552E-01       4    7    1        -0.1167434828E+01      0.2149770023E+01
          0                10           2             4    7     1      -0.1315605506E-01       4    7    1        -0.7160740130E+00      0.1314111498E+01
                                                   Max.-Head-Change                         Max.-Flux-Residual
  Residual-Control   Outer-Iter.   Inner-Iter.     Column Row Layer    Maximum-Head-Change  Column Row Layer    Maximum-Flux-Residual          L2-NORM 
          0                11           2             4    7     1      -0.8067305709E-02       4    7    1        -0.4391359697E+00      0.8033471781E+00
          0                12           2             4    7     1      -0.4946451101E-02       4    7    1        -0.2692714670E+00      0.4911363263E+00
          0                13           2             4    7     1      -0.3032687218E-02       4    7    1        -0.1650993797E+00      0.3002810483E+00
          0                14           2             4    7     1      -0.1859229136E-02       4    7    1        -0.1012208115E+00      0.1836028605E+00
          0                15           2             4    7     1      -0.1139753457E-02       4    7    1        -0.6205343581E-01      0.1122676756E+00
          0                16           2             4    7     1      -0.6986544209E-03       4    7    1        -0.3803948966E-01      0.6865177966E-01
          0                17           2             4    7     1      -0.4282407497E-03       4    7    1        -0.2331723771E-01      0.4198254126E-01
          0                18           2             4    7     1      -0.2624751448E-03       4    7    1        -0.1429202161E-01      0.2567460067E-01
          0                19           2             4    7     1      -0.1608657183E-03       4    7    1        -0.8759612540E-02      0.1570200294E-01
          0                20           1             4    7     1      -0.9858581788E-04       4    7    1        -0.5368479586E-02      0.9603316913E-02

    ------------------------------------------------
       NWT REQUIRED           20 OUTER ITERATIONS 
       AND A TOTAL OF         39 INNER ITERATIONS.
    ------------------------------------------------

 NO OUTPUT CONTROL FOR STRESS PERIOD   20   TIME STEP   17
 
 SOLVING FOR HEAD 
                                                   Max.-Head-Change                         Max.-Flux-Residual
  Residual-Control   Outer-Iter.   Inner-Iter.     Column Row Layer    Maximum-Head-Change  Column Row Layer    Maximum-Flux-Residual          L2-NORM 
          0                 1           2             4    7     1       0.2086175621E+01       4    6    1         0.1099771347E+03      0.2645911422E+03
          0                 2           2             5    8     1      -0.8611473538E+00       5    8    1        -0.4753625301E+02      0.1024329921E+03
          0                 3           2             5    8     1      -0.5178765730E+00       5    8    1        -0.2870205987E+02      0.5894666155E+02
          0                 4           2             4    8     1      -0.2951367533E+00       4    8    1        -0.1617352189E+02      0.2917778828E+02
          0                 5           2             4    8     1      -0.1795903987E+00       4    8    1        -0.9844694960E+01      0.1738040566E+02
          0                 6           2             4    7     1      -0.9410903555E-01       4    7    1        -0.5078489629E+01      0.9718400247E+01
          0                 7           2             4    7     1      -0.5792636878E-01       4    7    1        -0.3144546180E+01      0.5513542463E+01
          0                 8           2             4    7     1      -0.3554714320E-01       4    7    1        -0.1934206681E+01      0.3330008678E+01
          0                 9           2             4    7     1      -0.2178681030E-01       4    7    1        -0.1186609591E+01      0.2031818298E+01
          0                10           2             4    7     1      -0.1334584122E-01       4    7    1        -0.7271800703E+00      0.1241580006E+01
                                                   Max.-Head-Change                         Max.-Flux-Residual
  Residual-Control   Outer-Iter.   Inner-Iter.     Column Row Layer    Maximum-Head-Change  Column Row Layer    Maximum-Flux-Residual          L2-NORM 
          0                11           2             4    7     1      -0.8172994337E-02       4    7    1        -0.4454164749E+00      0.7588796445E+00
          0                12           2             4    7     1      -0.5004351282E-02       4    7    1        -0.2727621946E+00      0.4638858738E+00
          0                13           2             4    7     1      -0.3063841738E-02       4    7    1        -0.1670081876E+00      0.2835846298E+00
          0                14           2             4    7     1      -0.1875627041E-02       4    7    1        -0.1022457288E+00      0.1733748771E+00
          0                15           2             4    7     1      -0.1148136560E-02       4    7    1        -0.6259146301E-01      0.1060033672E+00
          0                16           2             4    7     1      -0.7027663876E-03       4    7    1        -0.3831355418E-01      0.6481578364E-01
          0                17           2             4    7     1      -0.4301316973E-03       4    7    1        -0.2345095297E-01      0.3963391974E-01
          0                18           2             4    7     1      -0.2632492777E-03       4    7    1        -0.1435297233E-01      0.2423684134E-01
          0                19           2             4    7     1      -0.1611054356E-03       4    7    1        -0.8784128904E-02      0.1482195681E-01
          0                20           1             4    7     1      -0.9858986264E-04       4    7    1        -0.5375675189E-02      0.9064702356E-02

    ------------------------------------------------
       NWT REQUIRED           20 OUTER ITERATIONS 
       AND A TOTAL OF         39 INNER ITERATIONS.
    ------------------------------------------------

 NO OUTPUT CONTROL FOR STRESS PERIOD   20   TIME STEP   18
 
 SOLVING FOR HEAD 
                                                   Max.-Head-Change                         Max.-Flux-Residual
  Residual-Control   Outer-Iter.   Inner-Iter.     Column Row Layer    Maximum-Head-Change  Column Row Layer    Maximum-Flux-Residual          L2-NORM 
          0                 1           2             4    7     1       0.2079549486E+01       4    6    1         0.1092061554E+03      0.2633870290E+03
          0                 2           2             5    8     1      -0.8655968949E+00       5    8    1        -0.4783444414E+02      0.1016616483E+03
          0                 3           2             5    8     1      -0.5213262311E+00       5    8    1        -0.2884683623E+02      0.6029585676E+02
          0                 4           2             4    8     1      -0.2739078664E+00       4    8    1        -0.1492553191E+02      0.3189831628E+02
          0                 5           2             4    8     1      -0.1666318687E+00       4    8    1        -0.9142471496E+01      0.1638215381E+02
          0                 6           2             4    8     1      -0.1012329546E+00       4    8    1        -0.5557341566E+01      0.9772098887E+01
          0                 7           2             4    8     1      -0.6152524435E-01       4    8    1        -0.3375944349E+01      0.5955721555E+01
          0                 8           2             4    8     1      -0.3741054482E-01       4    8    1        -0.2051835465E+01      0.3638398793E+01
          0                 9           2             4    8     1      -0.2275797590E-01       4    8    1        -0.1247665281E+01      0.2223859845E+01
          0                10           2             4    7     1      -0.1381282858E-01       4    7    1        -0.7481979048E+00      0.1279269422E+01
                                                   Max.-Head-Change                         Max.-Flux-Residual
  Residual-Control   Outer-Iter.   Inner-Iter.     Column Row Layer    Maximum-Head-Change  Column Row Layer    Maximum-Flux-Residual          L2-NORM 
          0                11           2             4    7     1      -0.8465894549E-02       4    7    1        -0.4613124803E+00      0.7057679419E+00
          0                12           2             4    7     1      -0.5172892394E-02       4    7    1        -0.2825420418E+00      0.4222204744E+00
          0                13           2             4    7     1      -0.3156776156E-02       4    7    1        -0.1725912484E+00      0.2560805070E+00
          0                14           2             4    7     1      -0.1925341383E-02       4    7    1        -0.1053108504E+00      0.1556207953E+00
          0                15           2             4    7     1      -0.1173937600E-02       4    7    1        -0.6422558296E-01      0.9459361281E-01
          0                16           2             4    7     1      -0.7156547129E-03       4    7    1        -0.3915858201E-01      0.5749946097E-01
          0                17           2             4    7     1      -0.4362176293E-03       4    7    1        -0.2387104347E-01      0.3495156048E-01
          0                18           2             4    7     1      -0.2658599615E-03       4    7    1        -0.1454985954E-01      0.2124574026E-01
          0                19           2             4    7     1      -0.1620157545E-03       4    7    1        -0.8867415526E-02      0.1291459288E-01
          0                20           1             4    7     1      -0.9872313430E-04       4    7    1        -0.5403688851E-02      0.7850428285E-02

    ------------------------------------------------
       NWT REQUIRED           20 OUTER ITERATIONS 
       AND A TOTAL OF         39 INNER ITERATIONS.
    ------------------------------------------------

 NO OUTPUT CONTROL FOR STRESS PERIOD   20   TIME STEP   19
 
 SOLVING FOR HEAD 
                                                   Max.-Head-Change                         Max.-Flux-Residual
  Residual-Control   Outer-Iter.   Inner-Iter.     Column Row Layer    Maximum-Head-Change  Column Row Layer    Maximum-Flux-Residual          L2-NORM 
          0                 1           2             4    7     1       0.2072834094E+01       4    6    1         0.1084791035E+03      0.2622955159E+03
          0                 2           2             5    8     1      -0.8693690578E+00       5    8    1        -0.4809387863E+02      0.1006261087E+03
          0                 3           2             5    8     1      -0.5241431672E+00       5    8    1        -0.2896912479E+02      0.6154047198E+02
          0                 4           2             5    6     1      -0.3024068251E+00       5    6    1        -0.1679020964E+02      0.3406108225E+02
          0                 5           2             4    8     1      -0.1543825041E+00       4    8    1        -0.8446396051E+01      0.1721176126E+02
          0                 6           2             4    7     1      -0.9419825525E-01       4    8    1        -0.5150489325E+01      0.9385621223E+01
          0                 7           2             4    7     1      -0.5816869874E-01       4    7    1        -0.3146828006E+01      0.5618940044E+01
          0                 8           2             4    7     1      -0.3589717062E-01       4    7    1        -0.1943059041E+01      0.3415550551E+01
          0                 9           2             4    7     1      -0.2213913261E-01       4    7    1        -0.1199008088E+01      0.2080568247E+01
          0                10           2             4    7     1      -0.1364594565E-01       4    7    1        -0.7394154464E+00      0.1267771764E+01
                                                   Max.-Head-Change                         Max.-Flux-Residual
  Residual-Control   Outer-Iter.   Inner-Iter.     Column Row Layer    Maximum-Head-Change  Column Row Layer    Maximum-Flux-Residual          L2-NORM 
          0                11           2             4    7     1      -0.8406293850E-02       4    7    1        -0.4557209697E+00      0.7725939166E+00
          0                12           2             4    7     1      -0.5175813239E-02       4    7    1        -0.2807171763E+00      0.4708772592E+00
          0                13           2             4    7     1      -0.3185225396E-02       4    7    1        -0.1728278056E+00      0.2870187481E+00
          0                14           2             4    7     1      -0.1959308230E-02       4    7    1        -0.1063523899E+00      0.1749673339E+00
          0                15           2             4    7     1      -0.1204699904E-02       4    7    1        -0.6541589311E-01      0.1066706225E+00
          0                16           2             4    7     1      -0.7404233070E-03       4    7    1        -0.4021926029E-01      0.6503850257E-01
          0                17           2             4    7     1      -0.4549012129E-03       4    7    1        -0.2471787564E-01      0.3965800388E-01
          0                18           2             4    7     1      -0.2793829178E-03       4    7    1        -0.1518536016E-01      0.2418369943E-01
          0                19           2             4    7     1      -0.1715289995E-03       4    7    1        -0.9325793439E-02      0.1474834780E-01
          0                20           1             4    7     1      -0.1052782775E-03       4    7    1        -0.5725354334E-02      0.8994772047E-02
          0                21           1             4    7     1      -0.6459686649E-04       4    7    1        -0.3513850814E-02      0.5486062154E-02

    ------------------------------------------------
       NWT REQUIRED           21 OUTER ITERATIONS 
       AND A TOTAL OF         40 INNER ITERATIONS.
    ------------------------------------------------

 NO OUTPUT CONTROL FOR STRESS PERIOD   20   TIME STEP   20
 
 SOLVING FOR HEAD 
                                                   Max.-Head-Change                         Max.-Flux-Residual
  Residual-Control   Outer-Iter.   Inner-Iter.     Column Row Layer    Maximum-Head-Change  Column Row Layer    Maximum-Flux-Residual          L2-NORM 
          0                 1           2             4    7     1       0.2067407985E+01       4    7    1         0.1079446302E+03      0.2613273875E+03
          0                 2           2             5    8     1      -0.8557813389E+00       5    8    1        -0.4732041215E+02      0.9977612915E+02
          0                 3           2             5    8     1      -0.5161895520E+00       5    8    1        -0.2851784465E+02      0.6044280127E+02
          0                 4           2             5    8     1      -0.3109061395E+00       5    8    1        -0.1720295969E+02      0.3593029035E+02
          0                 5           2             5    6     1      -0.1711287737E+00       5    6    1        -0.9510516243E+01      0.1865717993E+02
          0                 6           2             4    8     1      -0.9395231066E-01       5    6    1        -0.5157764841E+01      0.1033773265E+02
          0                 7           2             4    8     1      -0.5699770800E-01       4    8    1        -0.3133497573E+01      0.5531225478E+01
          0                 8           2             4    7     1      -0.3471657234E-01       4    8    1        -0.1900424336E+01      0.3289059874E+01
          0                 9           2             4    7     1      -0.2127895823E-01       4    7    1        -0.1158852651E+01      0.1991861968E+01
          0                10           2             4    7     1      -0.1303556576E-01       4    7    1        -0.7102360282E+00      0.1209453806E+01
                                                   Max.-Head-Change                         Max.-Flux-Residual
  Residual-Control   Outer-Iter.   Inner-Iter.     Column Row Layer    Maximum-Head-Change  Column Row Layer    Maximum-Flux-Residual          L2-NORM 
          0                11           2             4    7     1      -0.7982246319E-02       4    7    1        -0.4350636432E+00      0.7346402207E+00
          0                12           2             4    7     1      -0.4886091315E-02       4    7    1        -0.2663932348E+00      0.4462630395E+00
          0                13           2             4    7     1      -0.2989882552E-02       4    7    1        -0.1630561545E+00      0.2710988043E+00
          0                14           2             4    7     1      -0.1828996676E-02       4    7    1        -0.9977201042E-01      0.1646968953E+00
          0                15           2             4    7     1      -0.1118525420E-02       4    7    1        -0.6103057801E-01      0.1000608797E+00
          0                16           2             4    7     1      -0.6838482245E-03       4    7    1        -0.3732168013E-01      0.6079436525E-01
          0                17           2             4    7     1      -0.4179849044E-03       4    7    1        -0.2281689235E-01      0.3693865292E-01
          0                18           2             4    7     1      -0.2554195235E-03       4    7    1        -0.1394567128E-01      0.2244481329E-01
          0                19           2             4    7     1      -0.1560434110E-03       4    7    1        -0.8521490049E-02      0.1363850264E-01
          0                20           1             4    7     1      -0.9531023670E-04       4    7    1        -0.5205830741E-02      0.8287656633E-02

    ------------------------------------------------
       NWT REQUIRED           20 OUTER ITERATIONS 
       AND A TOTAL OF         39 INNER ITERATIONS.
    ------------------------------------------------

 NO OUTPUT CONTROL FOR STRESS PERIOD   20   TIME STEP   21
 
 SOLVING FOR HEAD 
                                                   Max.-Head-Change                         Max.-Flux-Residual
  Residual-Control   Outer-Iter.   Inner-Iter.     Column Row Layer    Maximum-Head-Change  Column Row Layer    Maximum-Flux-Residual          L2-NORM 
          0                 1           2             4    7     1       0.2061726608E+01       4    7    1         0.1076577501E+03      0.2604505163E+03
          0                 2           2             5    7     1      -0.8457578195E+00       5    7    1        -0.4599417640E+02      0.1022582828E+03
          0                 3           2             5    7     1      -0.5167420957E+00       5    7    1        -0.2823758452E+02      0.5795728185E+02
          0                 4           2             5    7     1      -0.3155819652E+00       5    7    1        -0.1724306239E+02      0.3546539697E+02
          0                 5           2             5    8     1      -0.1701177885E+00       5    8    1        -0.9411935463E+01      0.1999484443E+02
          0                 6           2             5    6     1      -0.9683326332E-01       5    6    1        -0.5384453300E+01      0.1031701205E+02
          0                 7           2             5    6     1      -0.5785008961E-01       5    6    1        -0.3224515333E+01      0.6079707279E+01
          0                 8           2             4    8     1      -0.3479929299E-01       5    6    1        -0.1925811430E+01      0.3673049825E+01
          0                 9           2             4    8     1      -0.2105349083E-01       4    8    1        -0.1160015392E+01      0.2227643846E+01
          0                10           2             4    8     1      -0.1273605016E-01       4    8    1        -0.7017635353E+00      0.1351968378E+01
                                                   Max.-Head-Change                         Max.-Flux-Residual
  Residual-Control   Outer-Iter.   Inner-Iter.     Column Row Layer    Maximum-Head-Change  Column Row Layer    Maximum-Flux-Residual          L2-NORM 
          0                11           2             4    8     1      -0.7705094339E-02       4    8    1        -0.4245142680E+00      0.8207456574E+00
          0                12           2             4    8     1      -0.4662109779E-02       4    8    1        -0.2568225211E+00      0.4983705807E+00
          0                13           2             4    6     1      -0.2847789552E-02       4    8    1        -0.1553952799E+00      0.3026874243E+00
          0                14           2             4    6     1      -0.1743289931E-02       4    6    1        -0.9503660331E-01      0.1838781978E+00
          0                15           2             4    6     1      -0.1058660614E-02       4    6    1        -0.5817429948E-01      0.1012153439E+00
          0                16           2             4    6     1      -0.6402535643E-03       4    6    1        -0.3529505362E-01      0.6035804573E-01
          0                17           2             4    7     1      -0.3869533976E-03       4    6    1        -0.2133738816E-01      0.3656032446E-01
          0                18           2             4    7     1      -0.2371158207E-03       4    7    1        -0.1291425397E-01      0.2219561223E-01
          0                19           2             4    7     1      -0.1452408815E-03       4    7    1        -0.7913077521E-02      0.1347937693E-01
          0                20           1             4    7     1      -0.8893179186E-04       4    7    1        -0.4846740336E-02      0.8186720382E-02

    ------------------------------------------------
       NWT REQUIRED           20 OUTER ITERATIONS 
       AND A TOTAL OF         39 INNER ITERATIONS.
    ------------------------------------------------

 NO OUTPUT CONTROL FOR STRESS PERIOD   20   TIME STEP   22
 
 SOLVING FOR HEAD 
                                                   Max.-Head-Change                         Max.-Flux-Residual
  Residual-Control   Outer-Iter.   Inner-Iter.     Column Row Layer    Maximum-Head-Change  Column Row Layer    Maximum-Flux-Residual          L2-NORM 
          0                 1           2             4    7     1       0.2054097747E+01       4    7    1         0.1072570921E+03      0.2596716733E+03
          0                 2           2             4    6     1      -0.8362832992E+00       4    6    1        -0.4565646707E+02      0.1023660396E+03
          0                 3           2             5    7     1      -0.4862572684E+00       5    7    1        -0.2655340586E+02      0.5514534565E+02
          0                 4           2             5    7     1      -0.2971783503E+00       5    7    1        -0.1622706134E+02      0.3375576412E+02
          0                 5           2             5    7     1      -0.1816381105E+00       5    7    1        -0.9917073933E+01      0.2066822137E+02
          0                 6           2             4    8     1      -0.9596271962E-01       4    8    1        -0.5220455862E+01      0.1138850735E+02
          0                 7           2             4    8     1      -0.5840101021E-01       4    8    1        -0.3203520800E+01      0.6017884030E+01
          0                 8           2             4    8     1      -0.3539785523E-01       4    8    1        -0.1947714160E+01      0.3564979417E+01
          0                 9           2             4    8     1      -0.2142372795E-01       4    8    1        -0.1180101765E+01      0.2155882592E+01
          0                10           2             4    8     1      -0.1296014030E-01       4    8    1        -0.7141264186E+00      0.1307889498E+01
                                                   Max.-Head-Change                         Max.-Flux-Residual
  Residual-Control   Outer-Iter.   Inner-Iter.     Column Row Layer    Maximum-Head-Change  Column Row Layer    Maximum-Flux-Residual          L2-NORM 
          0                11           2             4    8     1      -0.7839529367E-02       4    8    1        -0.4319825112E+00      0.7939173078E+00
          0                12           2             4    8     1      -0.4742434827E-02       4    8    1        -0.2612991404E+00      0.4820518116E+00
          0                13           2             4    8     1      -0.2869252875E-02       4    8    1        -0.1580690133E+00      0.2927597182E+00
          0                14           2             4    8     1      -0.1736206964E-02       4    8    1        -0.9563432697E-01      0.1778380567E+00
          0                15           2             4    8     1      -0.1050757032E-02       4    8    1        -0.5786912175E-01      0.1080511502E+00
          0                16           2             4    8     1      -0.6360214225E-03       4    8    1        -0.3502259884E-01      0.6566286714E-01
          0                17           2             4    8     1      -0.3850430827E-03       4    8    1        -0.2119915280E-01      0.3991077858E-01
          0                18           2             4    7     1      -0.2355537465E-03       4    8    1        -0.1283384316E-01      0.2426245417E-01
          0                19           2             4    7     1      -0.1443238072E-03       4    7    1        -0.7861016081E-02      0.1475189995E-01
          0                20           1             4    7     1      -0.8841142938E-04       4    7    1        -0.4816284385E-02      0.8970667245E-02

    ------------------------------------------------
       NWT REQUIRED           20 OUTER ITERATIONS 
       AND A TOTAL OF         39 INNER ITERATIONS.
    ------------------------------------------------

 NO OUTPUT CONTROL FOR STRESS PERIOD   20   TIME STEP   23
 
 SOLVING FOR HEAD 
                                                   Max.-Head-Change                         Max.-Flux-Residual
  Residual-Control   Outer-Iter.   Inner-Iter.     Column Row Layer    Maximum-Head-Change  Column Row Layer    Maximum-Flux-Residual          L2-NORM 
          0                 1           2             4    7     1       0.2046918739E+01       4    7    1         0.1068771250E+03      0.2588503974E+03
          0                 2           2             4    6     1      -0.8447761586E+00       4    6    1        -0.4612459751E+02      0.1009245592E+03
          0                 3           2             5    7     1      -0.4577803519E+00       5    8    1        -0.2508756587E+02      0.5653364987E+02
          0                 4           2             5    7     1      -0.2797388097E+00       5    7    1        -0.1528696954E+02      0.3233667385E+02
          0                 5           2             5    7     1      -0.1708411594E+00       5    7    1        -0.9334254908E+01      0.1977067962E+02
          0                 6           2             5    7     1      -0.1043536575E+00       5    7    1        -0.5700589846E+01      0.1209239933E+02
          0                 7           2             5    7     1      -0.6375229747E-01       5    7    1        -0.3482051807E+01      0.7398688772E+01
          0                 8           2             4    8     1      -0.3596517411E-01       4    8    1        -0.1967197291E+01      0.4007538549E+01
          0                 9           2             4    8     1      -0.2181015279E-01       4    8    1        -0.1199837695E+01      0.2166835788E+01
          0                10           2             4    8     1      -0.1318922956E-01       4    8    1        -0.7271161359E+00      0.1288733692E+01
                                                   Max.-Head-Change                         Max.-Flux-Residual
  Residual-Control   Outer-Iter.   Inner-Iter.     Column Row Layer    Maximum-Head-Change  Column Row Layer    Maximum-Flux-Residual          L2-NORM 
          0                11           2             4    8     1      -0.7968170352E-02       4    8    1        -0.4395928176E+00      0.7793138910E+00
          0                12           2             4    8     1      -0.4812682094E-02       4    8    1        -0.2655503212E+00      0.4724750511E+00
          0                13           2             4    8     1      -0.2906878138E-02       4    8    1        -0.1603837311E+00      0.2866009824E+00
          0                14           2             4    8     1      -0.1756001211E-02       4    8    1        -0.9687144749E-01      0.1738996270E+00
          0                15           2             4    8     1      -0.1060960013E-02       4    8    1        -0.5851858671E-01      0.1055433964E+00
          0                16           2             4    8     1      -0.6411442103E-03       4    8    1        -0.3535653353E-01      0.6407252431E-01
          0                17           2             4    8     1      -0.3875222408E-03       4    8    1        -0.2136626360E-01      0.3890597328E-01
          0                18           2             4    8     1      -0.2342726584E-03       4    8    1        -0.1291432820E-01      0.2362972239E-01
          0                19           2             4    8     1      -0.1416543042E-03       4    8    1        -0.7807268083E-02      0.1435465385E-01
          0                20           1             4    8     1      -0.8566822562E-04       4    8    1        -0.4720733308E-02      0.8721929317E-02

    ------------------------------------------------
       NWT REQUIRED           20 OUTER ITERATIONS 
       AND A TOTAL OF         39 INNER ITERATIONS.
    ------------------------------------------------

 NO OUTPUT CONTROL FOR STRESS PERIOD   20   TIME STEP   24
 
 SOLVING FOR HEAD 
                                                   Max.-Head-Change                         Max.-Flux-Residual
  Residual-Control   Outer-Iter.   Inner-Iter.     Column Row Layer    Maximum-Head-Change  Column Row Layer    Maximum-Flux-Residual          L2-NORM 
          0                 1           2             4    7     1       0.2040102116E+01       4    7    1         0.1065166498E+03      0.2580843187E+03
          0                 2           2             4    6     1      -0.8491886072E+00       4    6    1        -0.4636448954E+02      0.9949149626E+02
          0                 3           2             4    7     1      -0.5142812403E+00       4    7    1        -0.2778281372E+02      0.5860379516E+02
          0                 4           2             5    8     1      -0.2636093932E+00       5    8    1        -0.1452381896E+02      0.3156526101E+02
          0                 5           2             5    7     1      -0.1604065308E+00       5    8    1        -0.8787802043E+01      0.1862030113E+02
          0                 6           2             5    7     1      -0.9783203921E-01       5    7    1        -0.5351541840E+01      0.1136019242E+02
          0                 7           2             5    7     1      -0.5968217102E-01       5    7    1        -0.3263935636E+01      0.6934129254E+01
          0                 8           2             5    7     1      -0.3641738622E-01       5    7    1        -0.1991171985E+01      0.4234436453E+01
          0                 9           2             5    7     1      -0.2222645238E-01       5    7    1        -0.1215000563E+01      0.2586940645E+01
          0                10           2             5    7     1      -0.1356830405E-01       5    7    1        -0.7415513221E+00      0.1581082921E+01
                                                   Max.-Head-Change                         Max.-Flux-Residual
  Residual-Control   Outer-Iter.   Inner-Iter.     Column Row Layer    Maximum-Head-Change  Column Row Layer    Maximum-Flux-Residual          L2-NORM 
          0                11           2             5    7     1      -0.8284609463E-02       5    7    1        -0.4526888086E+00      0.9666975780E+00
          0                12           2             5    7     1      -0.5059489951E-02       5    7    1        -0.2764070461E+00      0.5912690936E+00
          0                13           2             5    7     1      -0.3090487232E-02       5    7    1        -0.1688054366E+00      0.3617673438E+00
          0                14           2             5    7     1      -0.1888122181E-02       5    7    1        -0.1031119529E+00      0.2214188361E+00
          0                15           2             5    7     1      -0.1153755177E-02       5    7    1        -0.6299618736E-01      0.1355602916E+00
          0                16           2             4    8     1      -0.7052551530E-03       5    7    1        -0.3849459015E-01      0.8301855967E-01
          0                17           2             4    8     1      -0.4318682684E-03       4    8    1        -0.2353489897E-01      0.5085516199E-01
          0                18           2             4    8     1      -0.2644967663E-03       4    8    1        -0.1441178693E-01      0.3116052428E-01
          0                19           2             4    8     1      -0.1620133640E-03       4    8    1        -0.8826470848E-02      0.1909753856E-01
          0                20           1             4    8     1      -0.9925212322E-04       4    8    1        -0.5406515887E-02      0.1170701996E-01

    ------------------------------------------------
       NWT REQUIRED           20 OUTER ITERATIONS 
       AND A TOTAL OF         39 INNER ITERATIONS.
    ------------------------------------------------

 NO OUTPUT CONTROL FOR STRESS PERIOD   20   TIME STEP   25
 
 SOLVING FOR HEAD 
                                                   Max.-Head-Change                         Max.-Flux-Residual
  Residual-Control   Outer-Iter.   Inner-Iter.     Column Row Layer    Maximum-Head-Change  Column Row Layer    Maximum-Flux-Residual          L2-NORM 
          0                 1           2             4    7     1       0.2034552666E+01       4    7    1         0.1062274004E+03      0.2573282632E+03
          0                 2           2             4    6     1      -0.8532742046E+00       4    6    1        -0.4658700434E+02      0.9887794302E+02
          0                 3           2             4    7     1      -0.5170978462E+00       4    7    1        -0.2787919688E+02      0.6037244768E+02
          0                 4           2             4    7     1      -0.2952719284E+00       4    7    1        -0.1600155640E+02      0.3317136130E+02
          0                 5           2             4    8     1      -0.1585644209E+00       4    8    1        -0.8661562551E+01      0.1821790704E+02
          0                 6           2             4    8     1      -0.9655891625E-01       4    8    1        -0.5291056770E+01      0.1086858487E+02
          0                 7           2             4    8     1      -0.5870592959E-01       4    8    1        -0.3220811458E+01      0.6574146564E+01
          0                 8           2             4    8     1      -0.3566881180E-01       4    8    1        -0.1957877681E+01      0.3984041162E+01
          0                 9           2             4    8     1      -0.2166575897E-01       4    8    1        -0.1189487444E+01      0.2414855803E+01
          0                10           2             4    8     1      -0.1315833719E-01       4    8    1        -0.7224824710E+00      0.1463721975E+01
                                                   Max.-Head-Change                         Max.-Flux-Residual
  Residual-Control   Outer-Iter.   Inner-Iter.     Column Row Layer    Maximum-Head-Change  Column Row Layer    Maximum-Flux-Residual          L2-NORM 
          0                11           2             4    8     1      -0.7990885021E-02       4    8    1        -0.4387754964E+00      0.8872063347E+00
          0                12           2             4    8     1      -0.4852499360E-02       4    8    1        -0.2664566044E+00      0.5377658220E+00
          0                13           2             4    8     1      -0.2946571260E-02       4    8    1        -0.1618036405E+00      0.3259613624E+00
          0                14           2             4    8     1      -0.1789167913E-02       4    8    1        -0.9824972596E-01      0.1975804057E+00
          0                15           2             4    8     1      -0.1086347770E-02       4    8    1        -0.5965643322E-01      0.1197640003E+00
          0                16           2             4    8     1      -0.6595851231E-03       4    8    1        -0.3622154270E-01      0.7259605409E-01
          0                17           2             4    8     1      -0.4004584384E-03       4    8    1        -0.2199180435E-01      0.4400516016E-01
          0                18           2             4    8     1      -0.2431246712E-03       4    8    1        -0.1335178879E-01      0.2667458254E-01
          0                19           2             4    8     1      -0.1475998520E-03       4    8    1        -0.8105934050E-02      0.1616942882E-01
          0                20           1             4    8     1      -0.8960414031E-04       4    8    1        -0.4920984792E-02      0.9801541071E-02

    ------------------------------------------------
       NWT REQUIRED           20 OUTER ITERATIONS 
       AND A TOTAL OF         39 INNER ITERATIONS.
    ------------------------------------------------

 NO OUTPUT CONTROL FOR STRESS PERIOD   20   TIME STEP   26
 
 SOLVING FOR HEAD 
                                                   Max.-Head-Change                         Max.-Flux-Residual
  Residual-Control   Outer-Iter.   Inner-Iter.     Column Row Layer    Maximum-Head-Change  Column Row Layer    Maximum-Flux-Residual          L2-NORM 
          0                 1           2             4    7     1       0.2031170040E+01       4    7    1         0.1060572392E+03      0.2565591854E+03
          0                 2           2             4    6     1      -0.8570542062E+00       4    6    1        -0.4680119087E+02      0.9905656087E+02
          0                 3           2             4    6     1      -0.5239517022E+00       4    6    1        -0.2860133606E+02      0.6078202948E+02
          0                 4           2             4    7     1      -0.3163783423E+00       4    7    1        -0.1713246315E+02      0.3477798146E+02
          0                 5           2             4    8     1      -0.1603238488E+00       4    8    1        -0.8703805390E+01      0.1954823459E+02
          0                 6           2             4    8     1      -0.9791885646E-01       4    8    1        -0.5353512544E+01      0.1092021823E+02
          0                 7           2             4    8     1      -0.5959303089E-01       4    8    1        -0.3267015048E+01      0.6531741657E+01
          0                 8           2             4    8     1      -0.3621745808E-01       4    8    1        -0.1987635398E+01      0.3950521619E+01
          0                 9           2             4    8     1      -0.2199862788E-01       4    8    1        -0.1207808809E+01      0.2392998349E+01
          0                10           2             4    8     1      -0.1335886047E-01       4    8    1        -0.7335793320E+00      0.1449797145E+01
                                                   Max.-Head-Change                         Max.-Flux-Residual
  Residual-Control   Outer-Iter.   Inner-Iter.     Column Row Layer    Maximum-Head-Change  Column Row Layer    Maximum-Flux-Residual          L2-NORM 
          0                11           2             4    8     1      -0.8111376579E-02       4    8    1        -0.4454560337E+00      0.8783831656E+00
          0                12           2             4    8     1      -0.4924846052E-02       4    8    1        -0.2704698908E+00      0.5321962231E+00
          0                13           2             4    8     1      -0.2990007121E-02       4    8    1        -0.1642131481E+00      0.3224580810E+00
          0                14           2             4    8     1      -0.1815250924E-02       4    8    1        -0.9969633396E-01      0.1953841169E+00
          0                15           2             4    8     1      -0.1102014744E-02       4    8    1        -0.6052511948E-01      0.1183911972E+00
          0                16           2             4    8     1      -0.6689983892E-03       4    8    1        -0.3674333364E-01      0.7174025365E-01
          0                17           2             4    8     1      -0.4061159003E-03       4    8    1        -0.2230531959E-01      0.4347291612E-01
          0                18           2             4    8     1      -0.2465257989E-03       4    8    1        -0.1354021729E-01      0.2634426168E-01
          0                19           2             4    8     1      -0.1496450559E-03       4    8    1        -0.8219214226E-02      0.1596480979E-01
          0                20           1             4    8     1      -0.9083428939E-04       4    8    1        -0.4989104479E-02      0.9675001670E-02

    ------------------------------------------------
       NWT REQUIRED           20 OUTER ITERATIONS 
       AND A TOTAL OF         39 INNER ITERATIONS.
    ------------------------------------------------

 NO OUTPUT CONTROL FOR STRESS PERIOD   20   TIME STEP   27
 
 SOLVING FOR HEAD 
                                                   Max.-Head-Change                         Max.-Flux-Residual
  Residual-Control   Outer-Iter.   Inner-Iter.     Column Row Layer    Maximum-Head-Change  Column Row Layer    Maximum-Flux-Residual          L2-NORM 
          0                 1           2             4    7     1       0.2032819675E+01       4    7    1         0.1061617875E+03      0.2558620051E+03
          0                 2           2             4    6     1      -0.8606507820E+00       4    6    1        -0.4704189541E+02      0.9810367548E+02
          0                 3           2             4    6     1      -0.5256219569E+00       4    6    1        -0.2871837564E+02      0.6017639250E+02
          0                 4           2             4    7     1      -0.2976664510E+00       4    7    1        -0.1602677474E+02      0.3596650806E+02
          0                 5           2             4    7     1      -0.1833499438E+00       4    7    1        -0.9949103461E+01      0.2031138950E+02
          0                 6           2             4    7     1      -0.1069605842E+00       4    7    1        -0.5812632976E+01      0.1209142466E+02
          0                 7           2             4    8     1      -0.6051274430E-01       4    8    1        -0.3307978341E+01      0.6598463821E+01
          0                 8           2             4    8     1      -0.3682299220E-01       4    8    1        -0.2018971867E+01      0.3920021428E+01
          0                 9           2             4    8     1      -0.2237322897E-01       4    8    1        -0.1228135268E+01      0.2363132999E+01
          0                10           2             4    8     1      -0.1358541772E-01       4    8    1        -0.7460878525E+00      0.1427603687E+01
                                                   Max.-Head-Change                         Max.-Flux-Residual
  Residual-Control   Outer-Iter.   Inner-Iter.     Column Row Layer    Maximum-Head-Change  Column Row Layer    Maximum-Flux-Residual          L2-NORM 
          0                11           2             4    8     1      -0.8247216523E-02       4    8    1        -0.4530059408E+00      0.8626738692E+00
          0                12           2             4    8     1      -0.5006020968E-02       4    8    1        -0.2749931069E+00      0.5213232355E+00
          0                13           2             4    8     1      -0.3038453280E-02       4    8    1        -0.1669152641E+00      0.3150532248E+00
          0                14           2             4    8     1      -0.1844150382E-02       4    8    1        -0.1013087787E+00      0.1904056691E+00
          0                15           2             4    8     1      -0.1119251069E-02       4    8    1        -0.6148693129E-01      0.1150790182E+00
          0                16           2             4    8     1      -0.6792778090E-03       4    8    1        -0.3731696356E-01      0.6955569936E-01
          0                17           2             4    8     1      -0.4122460442E-03       4    8    1        -0.2264741431E-01      0.4204254494E-01
          0                18           2             4    8     1      -0.2501812861E-03       4    8    1        -0.1374422173E-01      0.2541348154E-01
          0                19           2             4    8     1      -0.1518246759E-03       4    8    1        -0.8340862164E-02      0.1536233980E-01
          0                20           1             4    8     1      -0.9213377290E-04       4    8    1        -0.5061636458E-02      0.9286835525E-02

    ------------------------------------------------
       NWT REQUIRED           20 OUTER ITERATIONS 
       AND A TOTAL OF         39 INNER ITERATIONS.
    ------------------------------------------------

 NO OUTPUT CONTROL FOR STRESS PERIOD   20   TIME STEP   28
 
 SOLVING FOR HEAD 
                                                   Max.-Head-Change                         Max.-Flux-Residual
  Residual-Control   Outer-Iter.   Inner-Iter.     Column Row Layer    Maximum-Head-Change  Column Row Layer    Maximum-Flux-Residual          L2-NORM 
          0                 1           2             4    7     1       0.2033552365E+01       4    7    1         0.1062147954E+03      0.2552203187E+03
          0                 2           2             4    6     1      -0.8610211716E+00       4    6    1        -0.4710209581E+02      0.9713177416E+02
          0                 3           2             4    6     1      -0.5253724933E+00       4    6    1        -0.2872804345E+02      0.5955482165E+02
          0                 4           2             4    6     1      -0.3206542848E+00       4    6    1        -0.1752957121E+02      0.3653299367E+02
          0                 5           2             4    7     1      -0.1724587876E+00       4    7    1        -0.9309432602E+01      0.2060398593E+02
          0                 6           2             4    7     1      -0.1061934473E+00       4    7    1        -0.5762417475E+01      0.1215819874E+02
          0                 7           2             4    7     1      -0.6522331323E-01       4    7    1        -0.3546105540E+01      0.7382056905E+01
          0                 8           2             4    7     1      -0.4002232828E-01       4    7    1        -0.2177474888E+01      0.4501723077E+01
          0                 9           2             4    7     1      -0.2455058003E-01       4    7    1        -0.1336013359E+01      0.2747212674E+01
          0                10           2             4    7     1      -0.1505843026E-01       4    7    1        -0.8195052823E+00      0.1676893737E+01
                                                   Max.-Head-Change                         Max.-Flux-Residual
  Residual-Control   Outer-Iter.   Inner-Iter.     Column Row Layer    Maximum-Head-Change  Column Row Layer    Maximum-Flux-Residual          L2-NORM 
          0                11           2             4    7     1      -0.9236148034E-02       4    7    1        -0.5026433135E+00      0.1023748218E+01
          0                12           2             4    7     1      -0.5622468748E-02       4    7    1        -0.3059133009E+00      0.6239306869E+00
          0                13           2             4    8     1      -0.3272555362E-02       4    8    1        -0.1790878586E+00      0.3400235706E+00
          0                14           2             4    8     1      -0.1989113049E-02       4    8    1        -0.1091624649E+00      0.2020552157E+00
          0                15           2             4    8     1      -0.1207287563E-02       4    8    1        -0.6632792191E-01      0.1218549096E+00
          0                16           2             4    8     1      -0.7323598880E-03       4    8    1        -0.4025186386E-01      0.7364217435E-01
          0                17           2             4    8     1      -0.4441709178E-03       4    8    1        -0.2441587685E-01      0.4451637181E-01
          0                18           2             4    8     1      -0.2693674739E-03       4    8    1        -0.1480756674E-01      0.2691076454E-01
          0                19           2             4    8     1      -0.1633546950E-03       4    8    1        -0.8979862266E-02      0.1626826085E-01
          0                20           1             4    8     1      -0.9906433951E-04       4    8    1        -0.5445641315E-02      0.9834860557E-02

    ------------------------------------------------
       NWT REQUIRED           20 OUTER ITERATIONS 
       AND A TOTAL OF         39 INNER ITERATIONS.
    ------------------------------------------------

 NO OUTPUT CONTROL FOR STRESS PERIOD   20   TIME STEP   29
 
 SOLVING FOR HEAD 
                                                   Max.-Head-Change                         Max.-Flux-Residual
  Residual-Control   Outer-Iter.   Inner-Iter.     Column Row Layer    Maximum-Head-Change  Column Row Layer    Maximum-Flux-Residual          L2-NORM 
          0                 1           2             4    7     1       0.2032466967E+01       4    7    1         0.1061649777E+03      0.2546655579E+03
          0                 2           2             4    6     1      -0.8248785820E+00       4    6    1        -0.4511573113E+02      0.9528825134E+02
          0                 3           2             4    6     1      -0.5034357591E+00       4    6    1        -0.2752276401E+02      0.5840082277E+02
          0                 4           2             4    6     1      -0.3073383340E+00       4    6    1        -0.1679802433E+02      0.3581153538E+02
          0                 5           2             4    6     1      -0.1659511784E+00       4    6    1        -0.9038510876E+01      0.2142298371E+02
          0                 6           2             4    7     1      -0.9979849393E-01       4    7    1        -0.5395517165E+01      0.1212442626E+02
          0                 7           2             4    7     1      -0.6146495011E-01       4    7    1        -0.3333950643E+01      0.7309639336E+01
          0                 8           2             4    7     1      -0.3779397148E-01       4    7    1        -0.2052549202E+01      0.4452254355E+01
          0                 9           2             4    7     1      -0.2322436814E-01       4    7    1        -0.1261885159E+01      0.2716091893E+01
          0                10           2             4    7     1      -0.1426775603E-01       4    7    1        -0.7753729945E+00      0.1657513113E+01
                                                   Max.-Head-Change                         Max.-Flux-Residual
  Residual-Control   Outer-Iter.   Inner-Iter.     Column Row Layer    Maximum-Head-Change  Column Row Layer    Maximum-Flux-Residual          L2-NORM 
          0                11           2             4    7     1      -0.8764320307E-02       4    7    1        -0.4763281991E+00      0.1011697440E+01
          0                12           2             4    7     1      -0.5383348318E-02       4    7    1        -0.2925889942E+00      0.6176138783E+00
          0                13           2             4    7     1      -0.3306468125E-02       4    7    1        -0.1797145105E+00      0.3770962870E+00
          0                14           2             4    7     1      -0.2030739828E-02       4    7    1        -0.1103789869E+00      0.2302776164E+00
          0                15           2             4    7     1      -0.1247156399E-02       4    7    1        -0.6779033060E-01      0.1406405506E+00
          0                16           2             4    7     1      -0.7658828429E-03       4    7    1        -0.4163184217E-01      0.8590609120E-01
          0                17           2             4    7     1      -0.4703018229E-03       4    7    1        -0.2556572401E-01      0.5247922661E-01
          0                18           2             4    7     1      -0.2887767186E-03       4    7    1        -0.1569868483E-01      0.3206245839E-01
          0                19           2             4    7     1      -0.1773035439E-03       4    7    1        -0.9639166154E-02      0.1959062656E-01
          0                20           2             4    7     1      -0.1088531844E-03       4    7    1        -0.5918140000E-02      0.1197122126E-01
          0                21           1             4    7     1      -0.6682397993E-04       4    7    1        -0.3633284149E-02      0.7315837919E-02

    ------------------------------------------------
       NWT REQUIRED           21 OUTER ITERATIONS 
       AND A TOTAL OF         41 INNER ITERATIONS.
    ------------------------------------------------

 NO OUTPUT CONTROL FOR STRESS PERIOD   20   TIME STEP   30



 STREAM LISTING     PERIOD     20   STEP       30

 LAYER ROW COL. STREAM  RCH.  FLOW INTO     FLOW TO   FLOW OUT OF   OVRLND.     DIRECT     STREAM       STREAM     STREAM     STREAM   STREAMBED  STREAMBED
                SEG.NO.  NO.  STRM. RCH.    AQUIFER    STRM. RCH.    RUNOFF     PRECIP       ET          HEAD       DEPTH      WIDTH   CONDCTNC.   GRADIENT

   1    1    1     1     1    1.6138E+01  1.9509E-01   1.5943E+01  0.000E+00  0.000E+00  0.000E+00  1.09408E+03  1.032E+00  1.075E+01  4.839E-02  1.344E+00
   1    2    2     1     2    1.5943E+01  3.0079E-01   1.5642E+01  0.000E+00  0.000E+00  0.000E+00  1.08909E+03  1.027E+00  1.067E+01  7.469E-02  1.342E+00
   1    3    3     1     3    1.5642E+01  2.5522E-01   1.5387E+01  0.000E+00  0.000E+00  0.000E+00  1.08344E+03  1.022E+00  1.058E+01  6.345E-02  1.341E+00
   1    3    4     1     4    1.5387E+01  2.3394E-01   1.5153E+01  0.000E+00  0.000E+00  0.000E+00  1.07843E+03  1.017E+00  1.049E+01  5.823E-02  1.339E+00
   1    4    5     2     1    1.3153E+01  2.9763E-01   1.2856E+01  0.000E+00  0.000E+00  0.000E+00  1.07275E+03  8.158E-01  1.200E+01  7.800E-02  1.272E+00
   1    5    6     2     2    1.2856E+01  2.2835E-01   1.2627E+01  0.000E+00  0.000E+00  0.000E+00  1.06732E+03  8.059E-01  1.200E+01  6.000E-02  1.269E+00
   1    6    6     2     3    1.2627E+01  2.2783E-01   1.2399E+01  0.000E+00  0.000E+00  0.000E+00  1.06259E+03  7.972E-01  1.200E+01  6.000E-02  1.266E+00
   1    7    6     2     4    1.2399E+01  2.2731E-01   1.2172E+01  0.000E+00  0.000E+00  0.000E+00  1.05786E+03  7.885E-01  1.200E+01  6.000E-02  1.263E+00
   1    8    6     2     5    1.2172E+01  2.2678E-01   1.1945E+01  0.000E+00  0.000E+00  0.000E+00  1.05314E+03  7.797E-01  1.200E+01  6.000E-02  1.260E+00
   1    3    5     3     1    2.0000E+00  2.8252E-01   1.7175E+00  0.000E+00  0.000E+00  0.000E+00  1.07555E+03  1.909E+00  9.636E+00  7.227E-02  1.955E+00
   1    3    6     3     2    1.7175E+00  2.4905E-01   1.4684E+00  0.000E+00  0.000E+00  0.000E+00  1.07264E+03  1.727E+00  8.909E+00  6.682E-02  1.864E+00
   1    3    7     3     3    1.4684E+00  1.9718E-01   1.2712E+00  0.000E+00  0.000E+00  0.000E+00  1.06987E+03  1.555E+00  8.218E+00  5.547E-02  1.777E+00
   1    4    8     3     4    1.2712E+00  2.2567E-01   1.0456E+00  0.000E+00  0.000E+00  0.000E+00  1.06682E+03  1.364E+00  7.455E+00  6.709E-02  1.682E+00
   1    5    8     3     5    1.0456E+00  1.5790E-01   8.8768E-01  0.000E+00  0.000E+00  0.000E+00  1.06362E+03  1.164E+00  6.655E+00  4.991E-02  1.582E+00
   1    6    8     3     6    8.8768E-01  5.5980E-02   8.3170E-01  0.000E+00  0.000E+00  0.000E+00  1.06158E+03  1.036E+00  6.145E+00  1.844E-02  1.518E+00
   1    5   10     4     1    1.0000E+01  9.0919E-02   9.9091E+00  0.000E+00  0.000E+00  0.000E+00  1.07836E+03  6.368E-01  1.000E+01  2.500E-02  1.212E+00
   1    5    9     4     2    9.9091E+00  1.8158E-01   9.7275E+00  0.000E+00  0.000E+00  0.000E+00  1.07154E+03  6.315E-01  1.000E+01  5.000E-02  1.211E+00
   1    6    8     4     3    9.7275E+00  1.2689E-01   9.6006E+00  0.000E+00  0.000E+00  0.000E+00  1.06381E+03  6.256E-01  1.000E+01  3.500E-02  1.209E+00
   1    6    8     5     1    1.0432E+01  2.2686E-01   1.0205E+01  0.000E+00  0.000E+00  0.000E+00  1.05868E+03  6.790E-01  1.542E+01  6.166E-02  1.226E+00
   1    7    7     5     2    1.0205E+01  2.7894E-01   9.9265E+00  0.000E+00  0.000E+00  0.000E+00  1.05417E+03  6.732E-01  1.519E+01  7.594E-02  1.224E+00
   1    8    7     5     3    9.9265E+00  1.9221E-01   9.7343E+00  0.000E+00  0.000E+00  0.000E+00  1.04992E+03  6.676E-01  1.497E+01  5.241E-02  1.223E+00
   1    8    6     5     4    9.7343E+00  1.3577E-01   9.5985E+00  0.000E+00  0.000E+00  0.000E+00  1.04691E+03  6.637E-01  1.482E+01  3.706E-02  1.221E+00
   1    9    6     6     1    9.5985E+00  2.2097E-01   9.3776E+00  0.000E+00  0.000E+00  0.000E+00  1.04341E+03  6.828E-01  1.200E+01  6.000E-02  1.228E+00
   1   10    7     6     2    9.3776E+00  2.2039E-01   9.1572E+00  0.000E+00  0.000E+00  0.000E+00  1.03885E+03  6.732E-01  1.200E+01  6.000E-02  1.224E+00
   1   11    7     6     3    9.1572E+00  2.1981E-01   8.9374E+00  0.000E+00  0.000E+00  0.000E+00  1.03430E+03  6.636E-01  1.200E+01  6.000E-02  1.221E+00
   1   12    7     6     4    8.9374E+00  2.1923E-01   8.7181E+00  0.000E+00  0.000E+00  0.000E+00  1.02974E+03  6.539E-01  1.200E+01  6.000E-02  1.218E+00
   1   13    7     6     5    8.7181E+00  1.4076E-03   8.7167E+00  0.000E+00  0.000E+00  0.000E+00  1.02656E+03  6.489E-01  1.200E+01  2.400E-02  1.955E-02
   1   14    9     7     1    1.5000E+02  1.3846E+00   1.4862E+02  0.000E+00  0.000E+00  0.000E+00  1.03987E+03  2.288E+00  5.529E+01  5.593E-01  8.252E-01
   1   13    8     7     2    1.4862E+02  2.0125E+00   1.4660E+02  0.000E+00  0.000E+00  0.000E+00  1.03478E+03  2.279E+00  5.525E+01  6.147E-01  1.091E+00
   1   13    7     7     3    1.4660E+02  1.7802E+00   1.4482E+02  0.000E+00  0.000E+00  0.000E+00  1.02969E+03  2.268E+00  5.521E+01  5.584E-01  1.063E+00
   1   13    6     8     1    1.5354E+02  1.1323E+00   1.5241E+02  0.000E+00  0.000E+00  0.000E+00  1.02471E+03  2.838E+00  4.115E+01  4.193E-01  9.002E-01
   1   13    5     8     2    1.5241E+02  3.8690E-01   1.5202E+02  0.000E+00  0.000E+00  0.000E+00  1.01846E+03  2.832E+00  4.107E+01  4.185E-01  3.082E-01
   1   13    4     8     3    1.5202E+02 -1.6893E+00   1.5371E+02  0.000E+00  0.000E+00  0.000E+00  1.01221E+03  2.837E+00  4.113E+01  4.192E+00 -1.343E-01
   1   13    3     8     4    1.5371E+02 -3.2939E+00   1.5700E+02  0.000E+00  0.000E+00  0.000E+00  1.00598E+03  2.854E+00  4.139E+01  4.217E+00 -2.604E-01
   1   13    2     8     5    1.5700E+02 -2.5179E+00   1.5952E+02  0.000E+00  0.000E+00  0.000E+00  9.99749E+02  2.874E+00  4.167E+01  4.247E+00 -1.976E-01
   1   13    1     8     6    1.5952E+02 -1.9928E+00   1.6151E+02  0.000E+00  0.000E+00  0.000E+00  9.94764E+02  2.889E+00  4.190E+01  2.562E+00 -2.593E-01
   1    8    6     9     1    1.1945E+01  0.0000E+00   1.1945E+01  0.000E+00  0.000E+00  0.000E+00  1.08127E+03  2.521E+00  4.000E+00  0.000E+00  1.840E+00
   1    8    5     9     2    1.1945E+01  0.0000E+00   1.1945E+01  0.000E+00  0.000E+00  0.000E+00  1.08077E+03  2.521E+00  4.000E+00  0.000E+00  1.840E+00





UNSATURATED ZONE PACKAGE VOLUMETRIC BUDGET FOR  TIME STEP    30 STRESS PERIOD   20
  ------------------------------------------------------------------------------



     CUMULATIVE VOLUMES      L**3       RATES FOR THIS TIME STEP      L**3/T
     ------------------                 ------------------------

           IN:                                      IN:
           ---                                      ---
        INFILTRATION =  5703950660.4293          INFILTRATION =         612.7930

          OUT:                                     OUT:
          ----                                     ----
              UZF ET =   692755758.1146                UZF ET =          60.8175
        UZF RECHARGE =  3798738901.5454          UZF RECHARGE =         590.3452

            IN - OUT =  1212456000.7692              IN - OUT =         -38.3697

          STORAGE:                                 STORAGE:
          --------                                 --------
      STORAGE CHANGE =  1213098754.7911        STORAGE CHANGE =         -38.3697

 PERCENT DISCREPANCY IS DIFFERENCE BETWEEN IN-OUT MINUS CHANGE IN STORAGE
 DIVIDED BY THE AVERAGE OF IN AND OUT TIMES 100

 PERCENT DISCREPANCY =          -0.00     PERCENT DISCREPANCY =           0.00






1
  VOLUMETRIC BUDGET FOR AGRICULTURAL FIELDS AT  END OF TIME STEP   30, STRESS PERIOD  20
  ------------------------------------------------------------------------------

     CUMULATIVE VOLUMES      L**3       RATES FOR THIS TIME STEP      L**3/T
     ------------------                 ------------------------

           IN:                                      IN:
           ---                                      ---
               AG WELLS  =  5392463872.0000                 AG WELLS  =         600.0000
      DIVERSION SEGMENTS =   269093568.0000        DIVERSION SEGMENTS =          11.9453
           GW IRRIGATION =           0.0000             GW IRRIGATION =           0.0000
           SW IRRIGATION =           0.0000             SW IRRIGATION =           0.0000
        SYSTEM LOSSES GW =           0.0000          SYSTEM LOSSES GW =           0.0000
        SYSTEM LOSSES SW =           0.0000          SYSTEM LOSSES SW =           0.0000

                TOTAL IN =  5661557248.0000                  TOTAL IN =         611.9453

          OUT:                                     OUT:
          ----                                     ----
               AG WELLS  =           0.0000                 AG WELLS  =           0.0000
      DIVERSION SEGMENTS =           0.0000        DIVERSION SEGMENTS =           0.0000
           GW IRRIGATION =  5392463872.0000             GW IRRIGATION =         600.0000
           SW IRRIGATION =   269098560.0000             SW IRRIGATION =          11.9455
        SYSTEM LOSSES GW =           0.0000          SYSTEM LOSSES GW =           0.0000
        SYSTEM LOSSES SW =           0.0000          SYSTEM LOSSES SW =           0.0000

               TOTAL OUT =  5661562368.0000                 TOTAL OUT =         611.9455

                IN - OUT =       -5120.0000                  IN - OUT =      -2.4414E-04

     PERCENT DISCREPANCY =          -0.00         PERCENT DISCREPANCY =          -0.00



1
  VOLUMETRIC BUDGET FOR ENTIRE MODEL AT END OF TIME STEP   30, STRESS PERIOD  20
  ------------------------------------------------------------------------------

     CUMULATIVE VOLUMES      L**3       RATES FOR THIS TIME STEP      L**3/T
     ------------------                 ------------------------

           IN:                                      IN:
           ---                                      ---
             STORAGE     =  4926699008.0000               STORAGE     =          63.3841
       CONSTANT HEAD     =           0.0000         CONSTANT HEAD     =           0.0000
     HEAD DEP BOUNDS     =    14425084.0000       HEAD DEP BOUNDS     =           0.2891
      STREAM LEAKAGE     =   602600448.0000        STREAM LEAKAGE     =          12.1729
        UZF RECHARGE     =  3798736128.0000          UZF RECHARGE     =         590.3452
               GW ET     =           0.0000                 GW ET     =           0.0000
     SURFACE LEAKAGE     =           0.0000       SURFACE LEAKAGE     =           0.0000
           AG WELLS      =           0.0000             AG WELLS      =           0.0000

                TOTAL IN =  9342460928.0000                  TOTAL IN =         666.1913

          OUT:                                     OUT:
          ----                                     ----
             STORAGE     =  3443179008.0000               STORAGE     =          56.4206
       CONSTANT HEAD     =           0.0000         CONSTANT HEAD     =           0.0000
     HEAD DEP BOUNDS     =    14426087.0000       HEAD DEP BOUNDS     =           0.2866
      STREAM LEAKAGE     =   492340480.0000        STREAM LEAKAGE     =           9.4940
        UZF RECHARGE     =           0.0000          UZF RECHARGE     =           0.0000
               GW ET     =           0.0000                 GW ET     =           0.0000
     SURFACE LEAKAGE     =           0.0000       SURFACE LEAKAGE     =           0.0000
           AG WELLS      =  5392463872.0000             AG WELLS      =         600.0000

               TOTAL OUT =  9342409728.0000                 TOTAL OUT =         666.2012

                IN - OUT =       51200.0000                  IN - OUT =      -9.9487E-03

     PERCENT DISCREPANCY =           0.00         PERCENT DISCREPANCY =          -0.00






         TIME SUMMARY AT END OF TIME STEP   30 IN STRESS PERIOD   20
                    SECONDS     MINUTES      HOURS       DAYS        YEARS
                    -----------------------------------------------------------
   TIME STEP LENGTH  87667.      1461.1      24.352      1.0147     2.77799E-03
 STRESS PERIOD TIME 2.63000E+06  43833.      730.56      30.440     8.33397E-02
         TOTAL TIME 5.00565E+07 8.34276E+05  13905.      579.36      1.5862    
1
1
                            STRESS PERIOD NO.   21, LENGTH =   2630000.    
                            -----------------------------------------------

                              NUMBER OF TIME STEPS =    30

                               MULTIPLIER FOR DELT =     1.000

                            INITIAL TIME STEP SIZE =   87666.66    

 REUSING NON-PARAMETER GHB CELLS FROM LAST STRESS PERIOD

      2 GHB CELLS

 REUSING STREAM SEGMENT DATA FROM LAST STRESS PERIOD



            AREAL INFILTRATION RATE
 READING ON UNIT   19 WITH FORMAT: (FREE)              

            1           2           3           4           5           6           7           8           9          10
 ........................................................................................................................
   1   1.0000E-10  2.0000E-10   0.000       0.000       0.000       0.000       0.000       0.000       0.000       0.000    
   2   2.0000E-10  1.0000E-10  2.0000E-10   0.000       0.000      8.0000E-10  8.0000E-10  5.0000E-10   0.000       0.000    
   3    0.000      5.0000E-10  1.0000E-10  1.0000E-10  8.0000E-10  8.0000E-10  5.0000E-10  5.0000E-10   0.000       0.000    
   4   8.0000E-10  5.0000E-10  1.0000E-10  1.0000E-10  1.0000E-10  1.0000E-10  1.0000E-10  1.0000E-10  2.0000E-10   0.000    
   5   8.0000E-10  5.0000E-10  1.0000E-10  1.0000E-10  1.0000E-10  1.0000E-10  1.0000E-10  1.0000E-10  1.0000E-10  1.0000E-10
   6   8.0000E-10  5.0000E-10  5.0000E-10  2.0000E-10  2.0000E-10  1.0000E-10  1.0000E-10  1.0000E-10  1.0000E-10  5.0000E-10
   7   8.0000E-10  5.0000E-10  5.0000E-10  2.0000E-10  2.0000E-10  1.0000E-10  1.0000E-10  2.0000E-10  2.0000E-10   0.000    
   8    0.000      5.0000E-10  5.0000E-10  2.0000E-10  2.0000E-10  1.0000E-10  1.0000E-10  2.0000E-10  5.0000E-10   0.000    
   9    0.000      5.0000E-10  5.0000E-10  2.0000E-10  2.0000E-10  1.0000E-10  1.0000E-10  2.0000E-10  5.0000E-10   0.000    
  10    0.000      5.0000E-10  5.0000E-10  2.0000E-10  2.0000E-10  1.0000E-10  1.0000E-10  2.0000E-10  5.0000E-10  8.0000E-10
  11    0.000      1.0000E-10  1.0000E-10  1.0000E-10  1.0000E-10  1.0000E-10  1.0000E-10  2.0000E-10  5.0000E-10   0.000    
  12   1.0000E-10  1.0000E-10  1.0000E-10  1.0000E-10  1.0000E-10  1.0000E-10  1.0000E-10  1.0000E-10  2.0000E-10   0.000    
  13   1.0000E-10  1.0000E-10  2.0000E-10  2.0000E-10  2.0000E-10  2.0000E-10  2.0000E-10  1.0000E-10  1.0000E-10   0.000    
  14    0.000      2.0000E-10  5.0000E-10  5.0000E-10  5.0000E-10  5.0000E-10  5.0000E-10  2.0000E-10  1.0000E-10   0.000    
  15    0.000       0.000      8.0000E-10  8.0000E-10  8.0000E-10  8.0000E-10   0.000       0.000       0.000       0.000    

                  ET RATE =  3.250000E-07

 USING ET EXTINCTION DEPTH FROM PREVIOUS STRESS PERIOD. CURRENT PERIOD IS:      21

 USING EXTINCTION WATER CONTENT FROM PREVIOUS STRESS PERIOD. CURRENT PERIOD IS:      21

 USING AIR ENTRY PRESSURE FROM PREVIOUS STRESS PERIOD. CURRENT PERIOD IS:      21

 USING ROOT PRESSURE HEAD FROM PREVIOUS STRESS PERIOD. CURRENT PERIOD IS:      21

 USING ROOT ACTIVITY FROM PREVIOUS STRESS PERIOD. CURRENT PERIOD IS:      21

 PROCESSING AG STRESS PERIOD DATA

 READING AG STRESS PERIOD DATA

 READING IRRIGATION SEGMENT

 READING IRRIGATION WELL

 READING SUPPLEMENTAL WELL

 END PROCESSING AG STRESS PERIOD DATA OPTIONS
 
 SOLVING FOR HEAD 
                                                   Max.-Head-Change                         Max.-Flux-Residual
  Residual-Control   Outer-Iter.   Inner-Iter.     Column Row Layer    Maximum-Head-Change  Column Row Layer    Maximum-Flux-Residual          L2-NORM 
          0                 1           2             4    7     1       0.2024949070E+01       4    7    1         0.1057622522E+03      0.2541286016E+03
          0                 2           2             4    7     1       0.1237621492E+01       4    7    1         0.6473682316E+02      0.1506777356E+03
          0                 3           2             4    7     1       0.7536685200E+00       4    7    1         0.3955655974E+02      0.8711096810E+02
          0                 4           2             4    7     1       0.4558228111E+00       4    7    1         0.2407525589E+02      0.4554944055E+02
          0                 5           2             4    6     1       0.2342673828E+00       4    6    1         0.1248666100E+02      0.2405053102E+02
          0                 6           2             4    6     1       0.1389435849E+00       4    6    1         0.7464406730E+01      0.1212019622E+02
          0                 7           2             4    6     1       0.8207490599E-01       4    6    1         0.4421257053E+01      0.6989454842E+01
          0                 8           2             4    6     1       0.4841847614E-01       4    6    1         0.2610474570E+01      0.4114375313E+01
          0                 9           2             4    6     1       0.2855407268E-01       4    6    1         0.1539777644E+01      0.2427673761E+01
          0                10           2             4    6     1       0.1683971409E-01       4    6    1         0.9080333511E+00      0.1432794606E+01
                                                   Max.-Head-Change                         Max.-Flux-Residual
  Residual-Control   Outer-Iter.   Inner-Iter.     Column Row Layer    Maximum-Head-Change  Column Row Layer    Maximum-Flux-Residual          L2-NORM 
          0                11           2             4    6     1       0.9932639144E-02       4    6    1         0.5355163670E+00      0.8457033193E+00
          0                12           2             4    6     1       0.5859694589E-02       4    6    1         0.3158733206E+00      0.4992306284E+00
          0                13           2             4    6     1       0.3457558027E-02       4    6    1         0.1863525353E+00      0.2947396896E+00
          0                14           2             4    6     1       0.2040549563E-02       4    6    1         0.1099618699E+00      0.1740324423E+00
          0                15           2             4    6     1       0.1204495873E-02       4    6    1         0.6489807974E-01      0.1027717564E+00
          0                16           2             4    6     1       0.7111165296E-03       4    6    1         0.3830907286E-01      0.6069688572E-01
          0                17           2             4    6     1       0.4199041805E-03       4    6    1         0.2261768968E-01      0.3585131719E-01
          0                18           2             4    6     1       0.2479877945E-03       4    6    1         0.1335575112E-01      0.2117810242E-01
          0                19           2             4    6     1       0.1464798571E-03       4    6    1         0.7887849187E-02      0.1251150428E-01
          0                20           1             4    6     1       0.8653472760E-04       4    6    1         0.4659248884E-02      0.7392138783E-02

    ------------------------------------------------
       NWT REQUIRED           20 OUTER ITERATIONS 
       AND A TOTAL OF         39 INNER ITERATIONS.
    ------------------------------------------------

 NO OUTPUT CONTROL FOR STRESS PERIOD   21   TIME STEP    1
 
 SOLVING FOR HEAD 
                                                   Max.-Head-Change                         Max.-Flux-Residual
  Residual-Control   Outer-Iter.   Inner-Iter.     Column Row Layer    Maximum-Head-Change  Column Row Layer    Maximum-Flux-Residual          L2-NORM 
          0                 1           2             4    7     1       0.1991467976E+01       4    7    1         0.1041220651E+03      0.2422889401E+03
          0                 2           2             4    6     1      -0.9211716460E+00       4    6    1        -0.5040978984E+02      0.1045932474E+03
          0                 3           2             4    6     1      -0.5617847862E+00       4    6    1        -0.3073379190E+02      0.6408510610E+02
          0                 4           2             5    8     1      -0.2946524887E+00       5    8    1        -0.1625145040E+02      0.3640402632E+02
          0                 5           2             5    8     1      -0.1781665945E+00       5    8    1        -0.9821264275E+01      0.2157014753E+02
          0                 6           2             4    8     1      -0.1060097349E+00       4    8    1        -0.5765623454E+01      0.1279359485E+02
          0                 7           2             4    7     1      -0.6523381644E-01       4    8    1        -0.3539054625E+01      0.7335522597E+01
          0                 8           2             4    7     1      -0.4033996168E-01       4    7    1        -0.2179472392E+01      0.4433442132E+01
          0                 9           2             4    7     1      -0.2493579784E-01       4    7    1        -0.1347692316E+01      0.2701370700E+01
          0                10           2             4    7     1      -0.1540765274E-01       4    7    1        -0.8330175962E+00      0.1648115706E+01
                                                   Max.-Head-Change                         Max.-Flux-Residual
  Residual-Control   Outer-Iter.   Inner-Iter.     Column Row Layer    Maximum-Head-Change  Column Row Layer    Maximum-Flux-Residual          L2-NORM 
          0                11           2             4    7     1      -0.9516574319E-02       4    7    1        -0.5146870258E+00      0.1005903735E+01
          0                12           2             4    7     1      -0.5875744825E-02       4    7    1        -0.3178804673E+00      0.6141082234E+00
          0                13           2             4    7     1      -0.3626526376E-02       4    7    1        -0.1962561803E+00      0.3750134495E+00
          0                14           2             4    7     1      -0.2237544870E-02       4    7    1        -0.1211237323E+00      0.2290642247E+00
          0                15           2             4    7     1      -0.1380106907E-02       4    7    1        -0.7472895291E-01      0.1399490759E+00
          0                16           2             4    7     1      -0.8509822156E-03       4    7    1        -0.4609027810E-01      0.8552213360E-01
          0                17           2             4    7     1      -0.5245675011E-03       4    7    1        -0.2841824260E-01      0.5227284719E-01
          0                18           2             4    7     1      -0.3232670534E-03       4    7    1        -0.1751696613E-01      0.3195630772E-01
          0                19           2             4    7     1      -0.1991619545E-03       4    7    1        -0.1079444549E-01      0.1953951838E-01
          0                20           1             4    7     1      -0.1226709113E-03       4    7    1        -0.6650085527E-02      0.1194929563E-01
          0                21           1             4    7     1      -0.7553916837E-04       4    7    1        -0.4095858523E-02      0.7308641591E-02

    ------------------------------------------------
       NWT REQUIRED           21 OUTER ITERATIONS 
       AND A TOTAL OF         40 INNER ITERATIONS.
    ------------------------------------------------

 NO OUTPUT CONTROL FOR STRESS PERIOD   21   TIME STEP    2
 
 SOLVING FOR HEAD 
                                                   Max.-Head-Change                         Max.-Flux-Residual
  Residual-Control   Outer-Iter.   Inner-Iter.     Column Row Layer    Maximum-Head-Change  Column Row Layer    Maximum-Flux-Residual          L2-NORM 
          0                 1           2             4    7     1       0.1983684475E+01       4    7    1         0.1036990078E+03      0.2425056616E+03
          0                 2           2             4    7     1       0.1209369286E+01       4    7    1         0.6338035923E+02      0.1409626079E+03
          0                 3           2             4    7     1       0.7297398808E+00       4    7    1         0.3831206834E+02      0.8237400478E+02
          0                 4           2             4    7     1       0.4495123048E+00       4    7    1         0.2366646754E+02      0.4872277252E+02
          0                 5           2             4    7     1       0.2719003126E+00       4    7    1         0.1435199132E+02      0.2832356207E+02
          0                 6           2             4    7     1       0.1317120775E+00       4    7    1         0.6962687582E+01      0.1423141596E+02
          0                 7           2             4    6     1       0.7553343966E-01       4    6    1         0.4076018824E+01      0.6830497026E+01
          0                 8           2             4    6     1       0.4424480413E-01       4    6    1         0.2401732207E+01      0.3878289116E+01
          0                 9           2             4    6     1       0.2583506878E-01       4    6    1         0.1405436996E+01      0.2267515380E+01
          0                10           2             4    6     1       0.1506784377E-01       4    6    1         0.8203487261E+00      0.1330897358E+01
                                                   Max.-Head-Change                         Max.-Flux-Residual
  Residual-Control   Outer-Iter.   Inner-Iter.     Column Row Layer    Maximum-Head-Change  Column Row Layer    Maximum-Flux-Residual          L2-NORM 
          0                11           2             4    6     1       0.8784300615E-02       4    6    1         0.4783888829E+00      0.7815793357E+00
          0                12           2             4    6     1       0.5120313409E-02       4    6    1         0.2788789023E+00      0.4590786035E+00
          0                13           2             4    6     1       0.2984442725E-02       4    6    1         0.1625538915E+00      0.2697018650E+00
          0                14           2             4    6     1       0.1739497104E-02       4    6    1         0.9474614907E-01      0.1584778658E+00
          0                15           2             4    6     1       0.1013874166E-02       4    6    1         0.5522318194E-01      0.9314127769E-01
          0                16           2             4    6     1       0.5909443628E-03       4    6    1         0.3218710231E-01      0.5475245374E-01
          0                17           2             4    8     1       0.3492188467E-03       4    6    1         0.1876051639E-01      0.3219220969E-01
          0                18           2             4    8     1       0.2080772753E-03       4    8    1         0.1112244163E-01      0.1893134478E-01
          0                19           2             4    8     1       0.1239432221E-03       4    8    1         0.6626859267E-02      0.1113507684E-01
          0                20           1             4    8     1       0.7380717862E-04       4    8    1         0.3947185174E-02      0.6550638917E-02

    ------------------------------------------------
       NWT REQUIRED           20 OUTER ITERATIONS 
       AND A TOTAL OF         39 INNER ITERATIONS.
    ------------------------------------------------

 NO OUTPUT CONTROL FOR STRESS PERIOD   21   TIME STEP    3
 
 SOLVING FOR HEAD 
                                                   Max.-Head-Change                         Max.-Flux-Residual
  Residual-Control   Outer-Iter.   Inner-Iter.     Column Row Layer    Maximum-Head-Change  Column Row Layer    Maximum-Flux-Residual          L2-NORM 
          0                 1           2             4    7     1       0.1938405276E+01       4    7    1         0.1013950183E+03      0.2315947792E+03
          0                 2           2             5    8     1      -0.1034394095E+01       5    8    1        -0.5736196173E+02      0.1196029421E+03
          0                 3           2             5    6     1      -0.5683283120E+00       5    6    1        -0.3143904570E+02      0.6550081947E+02
          0                 4           2             4    7     1      -0.3097295511E+00       5    6    1        -0.1694481912E+02      0.3873698506E+02
          0                 5           2             4    7     1      -0.1923603112E+00       4    7    1        -0.1035341245E+02      0.2183955357E+02
          0                 6           2             4    8     1      -0.1114134499E+00       4    8    1        -0.6077674873E+01      0.1155915367E+02
          0                 7           2             4    8     1      -0.6779757440E-01       4    8    1        -0.3718183720E+01      0.6060568458E+01
          0                 8           2             4    8     1      -0.4113961341E-01       4    8    1        -0.2261175897E+01      0.3556094821E+01
          0                 9           2             4    8     1      -0.2493250227E-01       4    8    1        -0.1371710100E+01      0.2129533576E+01
          0                10           2             4    8     1      -0.1510105365E-01       4    8    1        -0.8312116066E+00      0.1279267272E+01
                                                   Max.-Head-Change                         Max.-Flux-Residual
  Residual-Control   Outer-Iter.   Inner-Iter.     Column Row Layer    Maximum-Head-Change  Column Row Layer    Maximum-Flux-Residual          L2-NORM 
          0                11           2             4    8     1      -0.9143165098E-02       4    8    1        -0.5034095742E+00      0.7688839631E+00
          0                12           2             4    8     1      -0.5534528297E-02       4    8    1        -0.3047821077E+00      0.4622052995E+00
          0                13           2             4    8     1      -0.3349500288E-02       4    8    1        -0.1844830658E+00      0.2778889544E+00
          0                14           2             4    8     1      -0.2026771793E-02       4    8    1        -0.1116453999E+00      0.1670975168E+00
          0                15           2             4    8     1      -0.1226198762E-02       4    8    1        -0.6755407495E-01      0.1004915660E+00
          0                16           2             4    8     1      -0.7417405941E-03       4    8    1        -0.4086900169E-01      0.6044316359E-01
          0                17           2             4    8     1      -0.4486230002E-03       4    8    1        -0.2472134300E-01      0.3635960456E-01
          0                18           2             4    8     1      -0.2713014410E-03       4    8    1        -0.1495163644E-01      0.2187468590E-01
          0                19           2             4    8     1      -0.1640462371E-03       4    8    1        -0.9041630552E-02      0.1316168901E-01
          0                20           1             4    8     1      -0.9918054686E-04       4    8    1        -0.5466994743E-02      0.7919999235E-02

    ------------------------------------------------
       NWT REQUIRED           20 OUTER ITERATIONS 
       AND A TOTAL OF         39 INNER ITERATIONS.
    ------------------------------------------------

 NO OUTPUT CONTROL FOR STRESS PERIOD   21   TIME STEP    4
 
 SOLVING FOR HEAD 
                                                   Max.-Head-Change                         Max.-Flux-Residual
  Residual-Control   Outer-Iter.   Inner-Iter.     Column Row Layer    Maximum-Head-Change  Column Row Layer    Maximum-Flux-Residual          L2-NORM 
          0                 1           2             4    7     1       0.1929174455E+01       4    7    1         0.1008894336E+03      0.2323718313E+03
          0                 2           2             4    7     1       0.1094804874E+01       4    8    1         0.5783029415E+02      0.1257914300E+03
          0                 3           2             4    7     1       0.6614269414E+00       4    7    1         0.3466020993E+02      0.7435445447E+02
          0                 4           2             4    7     1       0.4099444410E+00       4    7    1         0.2149111061E+02      0.4569267846E+02
          0                 5           2             4    7     1       0.2491723196E+00       4    7    1         0.1309799521E+02      0.2650029046E+02
          0                 6           2             4    7     1       0.1504680539E+00       4    7    1         0.7957707447E+01      0.1490810302E+02
          0                 7           2             4    7     1       0.9045551250E-01       4    7    1         0.4796608691E+01      0.8854314668E+01
          0                 8           2             4    7     1       0.5435939609E-01       4    7    1         0.2884678057E+01      0.5297993425E+01
          0                 9           2             4    7     1       0.3265557984E-01       4    7    1         0.1733341116E+01      0.3172962601E+01
          0                10           2             4    7     1       0.1961526252E-01       4    7    1         0.1041238014E+01      0.1900598845E+01
                                                   Max.-Head-Change                         Max.-Flux-Residual
  Residual-Control   Outer-Iter.   Inner-Iter.     Column Row Layer    Maximum-Head-Change  Column Row Layer    Maximum-Flux-Residual          L2-NORM 
          0                11           2             4    7     1       0.1178209668E-01       4    7    1         0.6254349619E+00      0.1138566644E+01
          0                12           2             4    7     1       0.7077085980E-02       4    7    1         0.3756731581E+00      0.6821313615E+00
          0                13           2             4    7     1       0.4251011540E-02       4    7    1         0.2256538776E+00      0.4087127454E+00
          0                14           2             4    7     1       0.2553497072E-02       4    7    1         0.1355443858E+00      0.2449101741E+00
          0                15           2             4    7     1       0.1533847173E-02       4    7    1         0.8141892683E-01      0.1467680084E+00
          0                16           2             4    7     1       0.9213627334E-03       4    7    1         0.4890717772E-01      0.8796083096E-01
          0                17           2             4    7     1       0.5534511166E-03       4    7    1         0.2937794320E-01      0.5272033289E-01
          0                18           2             4    7     1       0.3324500231E-03       4    7    1         0.1764696376E-01      0.3160061892E-01
          0                19           2             4    7     1       0.1996965274E-03       4    7    1         0.1060026805E-01      0.1894259863E-01
          0                20           1             4    7     1       0.1199528102E-03       4    7    1         0.6367376694E-02      0.1135554852E-01
          0                21           1             4    7     1       0.7205183329E-04       4    7    1         0.3824721614E-02      0.6807686393E-02

    ------------------------------------------------
       NWT REQUIRED           21 OUTER ITERATIONS 
       AND A TOTAL OF         40 INNER ITERATIONS.
    ------------------------------------------------

 NO OUTPUT CONTROL FOR STRESS PERIOD   21   TIME STEP    5
 
 SOLVING FOR HEAD 
                                                   Max.-Head-Change                         Max.-Flux-Residual
  Residual-Control   Outer-Iter.   Inner-Iter.     Column Row Layer    Maximum-Head-Change  Column Row Layer    Maximum-Flux-Residual          L2-NORM 
          0                 1           2             4    7     1       0.1882286387E+01       4    7    1         0.9857809266E+02      0.2223963728E+03
          0                 2           2             5    7     1      -0.1005128540E+01       5    7    1        -0.5475774732E+02      0.1224244568E+03
          0                 3           2             4    7     1      -0.5761783782E+00       4    7    1        -0.3102990311E+02      0.7166377383E+02
          0                 4           2             5    8     1      -0.3284288894E+00       5    8    1        -0.1817765916E+02      0.3992084357E+02
          0                 5           2             5    8     1      -0.1972705838E+00       5    8    1        -0.1094312622E+02      0.2204306583E+02
          0                 6           2             5    8     1      -0.1176664271E+00       5    8    1        -0.6571027088E+01      0.1245527274E+02
          0                 7           2             5    8     1      -0.6996254911E-01       5    8    1        -0.3916269488E+01      0.7451654705E+01
          0                 8           2             4    6     1      -0.4247657419E-01       4    6    1        -0.2331725817E+01      0.4502118198E+01
          0                 9           2             4    6     1      -0.2580869509E-01       4    6    1        -0.1416497068E+01      0.2725177362E+01
          0                10           2             4    6     1      -0.1568409746E-01       4    6    1        -0.8606632128E+00      0.1650715962E+01
                                                   Max.-Head-Change                         Max.-Flux-Residual
  Residual-Control   Outer-Iter.   Inner-Iter.     Column Row Layer    Maximum-Head-Change  Column Row Layer    Maximum-Flux-Residual          L2-NORM 
          0                11           2             4    6     1      -0.9532976537E-02       4    6    1        -0.5230314403E+00      0.1000402606E+01
          0                12           2             4    6     1      -0.5795246837E-02       4    6    1        -0.3179053967E+00      0.6065774721E+00
          0                13           2             4    6     1      -0.3523617479E-02       4    6    1        -0.1932602014E+00      0.3679566323E+00
          0                14           2             4    6     1      -0.2142781620E-02       4    6    1        -0.1175060746E+00      0.2233035541E+00
          0                15           2             4    6     1      -0.1303281601E-02       4    6    1        -0.7145793787E-01      0.1355728863E+00
          0                16           2             4    6     1      -0.7928090012E-03       4    6    1        -0.4346220340E-01      0.8234134907E-01
          0                17           2             4    6     1      -0.4823558038E-03       4    6    1        -0.2643886722E-01      0.5002891753E-01
          0                18           2             4    6     1      -0.2935172698E-03       4    6    1        -0.1608579192E-01      0.3040693908E-01
          0                19           2             4    6     1      -0.1786345809E-03       4    6    1        -0.9788341720E-02      0.1848688287E-01
          0                20           2             4    6     1      -0.1087330541E-03       4    6    1        -0.5957188946E-02      0.1124308323E-01
          0                21           1             4    6     1      -0.6619424558E-04       4    6    1        -0.3626082187E-02      0.6839584422E-02

    ------------------------------------------------
       NWT REQUIRED           21 OUTER ITERATIONS 
       AND A TOTAL OF         41 INNER ITERATIONS.
    ------------------------------------------------

 NO OUTPUT CONTROL FOR STRESS PERIOD   21   TIME STEP    6
 
 SOLVING FOR HEAD 
                                                   Max.-Head-Change                         Max.-Flux-Residual
  Residual-Control   Outer-Iter.   Inner-Iter.     Column Row Layer    Maximum-Head-Change  Column Row Layer    Maximum-Flux-Residual          L2-NORM 
          0                 1           2             4    7     1       0.1871566062E+01       4    7    1         0.9798308350E+02      0.2238465464E+03
          0                 2           2             4    6     1       0.1042362468E+01       4    6    1         0.5535665557E+02      0.1237723495E+03
          0                 3           2             4    6     1       0.6167528561E+00       4    6    1         0.3290069453E+02      0.7007785993E+02
          0                 4           2             4    7     1       0.3567459581E+00       4    7    1         0.1879292398E+02      0.3937748779E+02
          0                 5           2             4    7     1       0.2161386612E+00       4    7    1         0.1138910297E+02      0.2146907477E+02
          0                 6           2             4    7     1       0.1308946029E+00       4    7    1         0.6899950830E+01      0.1270501267E+02
          0                 7           2             4    7     1       0.7923407118E-01       4    7    1         0.4178396291E+01      0.7601777388E+01
          0                 8           2             4    7     1       0.4794105441E-01       4    7    1         0.2529137472E+01      0.4554481640E+01
          0                 9           2             4    7     1       0.2899471390E-01       4    7    1         0.1530175270E+01      0.2729485076E+01
          0                10           2             4    7     1       0.1752900339E-01       4    7    1         0.9253943896E+00      0.1636067749E+01
                                                   Max.-Head-Change                         Max.-Flux-Residual
  Residual-Control   Outer-Iter.   Inner-Iter.     Column Row Layer    Maximum-Head-Change  Column Row Layer    Maximum-Flux-Residual          L2-NORM 
          0                11           2             4    7     1       0.1059336801E-01       4    7    1         0.5594241298E+00      0.9808415214E+00
          0                12           2             4    7     1       0.6399704956E-02       4    7    1         0.3380613047E+00      0.5881268181E+00
          0                13           2             4    7     1       0.3864957904E-02       4    7    1         0.2042209164E+00      0.3527065906E+00
          0                14           2             4    7     1       0.2333445398E-02       4    7    1         0.1233290107E+00      0.2115543223E+00
          0                15           2             4    7     1       0.1408403304E-02       4    7    1         0.7445598112E-01      0.1269086574E+00
          0                16           2             4    7     1       0.8498470777E-03       4    7    1         0.4493778093E-01      0.7614074296E-01
          0                17           2             4    7     1       0.5126797554E-03       4    7    1         0.2711496839E-01      0.4568727535E-01
          0                18           2             4    7     1       0.3092074471E-03       4    7    1         0.1635683340E-01      0.2741711554E-01
          0                19           2             4    7     1       0.1864482892E-03       4    7    1         0.9864809347E-02      0.1645481376E-01
          0                20           1             4    7     1       0.1124028714E-03       4    7    1         0.5948174834E-02      0.9876555456E-02
          0                21           1             4    7     1       0.6775048410E-04       4    7    1         0.3585833483E-02      0.5928655712E-02

    ------------------------------------------------
       NWT REQUIRED           21 OUTER ITERATIONS 
       AND A TOTAL OF         40 INNER ITERATIONS.
    ------------------------------------------------

 NO OUTPUT CONTROL FOR STRESS PERIOD   21   TIME STEP    7
 
 SOLVING FOR HEAD 
                                                   Max.-Head-Change                         Max.-Flux-Residual
  Residual-Control   Outer-Iter.   Inner-Iter.     Column Row Layer    Maximum-Head-Change  Column Row Layer    Maximum-Flux-Residual          L2-NORM 
          0                 1           2             4    7     1       0.1830804453E+01       4    7    1         0.9594204035E+02      0.2145807997E+03
          0                 2           2             5    8     1      -0.1472343695E+01       5    8    1        -0.8192299648E+02      0.1422696429E+03
          0                 3           2             5    6     1      -0.5635815616E+00       5    6    1        -0.3116235114E+02      0.6392560436E+02
          0                 4           2             5    6     1      -0.3398306904E+00       5    6    1        -0.1878128108E+02      0.3784849191E+02
          0                 5           2             5    6     1      -0.2049899020E+00       5    6    1        -0.1132491948E+02      0.2312871930E+02
          0                 6           2             5    6     1      -0.1236977875E+00       5    6    1        -0.6831381323E+01      0.1413917655E+02
          0                 7           2             5    6     1      -0.7467045125E-01       5    6    1        -0.4122343936E+01      0.8646709247E+01
          0                 8           2             4    6     1      -0.4544177684E-01       5    6    1        -0.2488505544E+01      0.5289517878E+01
          0                 9           2             4    6     1      -0.2779905686E-01       4    6    1        -0.1516460357E+01      0.3236730956E+01
          0                10           2             4    6     1      -0.1700704407E-01       4    6    1        -0.9276869555E+00      0.1981119843E+01
                                                   Max.-Head-Change                         Max.-Flux-Residual
  Residual-Control   Outer-Iter.   Inner-Iter.     Column Row Layer    Maximum-Head-Change  Column Row Layer    Maximum-Flux-Residual          L2-NORM 
          0                11           2             5    7     1      -0.9996624953E-02       5    6    1        -0.5486046730E+00      0.1142576732E+01
          0                12           2             5    7     1      -0.6089147497E-02       5    7    1        -0.3334398903E+00      0.6621902233E+00
          0                13           2             5    7     1      -0.3708750938E-02       5    7    1        -0.2031023861E+00      0.3995841007E+00
          0                14           2             5    7     1      -0.2258656861E-02       5    7    1        -0.1237017821E+00      0.2426501227E+00
          0                15           2             5    7     1      -0.1375376726E-02       5    7    1        -0.7533329194E-01      0.1475072480E+00
          0                16           2             4    7     1      -0.8396550499E-03       5    7    1        -0.4587189034E-01      0.8970106287E-01
          0                17           2             4    7     1      -0.5139701827E-03       4    7    1        -0.2801949258E-01      0.5456289422E-01
          0                18           2             4    7     1      -0.3145698042E-03       4    7    1        -0.1715075839E-01      0.3319765814E-01
          0                19           2             4    7     1      -0.1925072295E-03       4    7    1        -0.1049663992E-01      0.2020333469E-01
          0                20           2             4    7     1      -0.1177964786E-03       4    7    1        -0.6423459264E-02      0.1229811015E-01
          0                21           1             4    7     1      -0.7207346968E-04       4    7    1        -0.3930459341E-02      0.7487677430E-02

    ------------------------------------------------
       NWT REQUIRED           21 OUTER ITERATIONS 
       AND A TOTAL OF         41 INNER ITERATIONS.
    ------------------------------------------------

 NO OUTPUT CONTROL FOR STRESS PERIOD   21   TIME STEP    8
 
 SOLVING FOR HEAD 
                                                   Max.-Head-Change                         Max.-Flux-Residual
  Residual-Control   Outer-Iter.   Inner-Iter.     Column Row Layer    Maximum-Head-Change  Column Row Layer    Maximum-Flux-Residual          L2-NORM 
          0                 1           2             4    7     1       0.1814421698E+01       4    7    1         0.9519447511E+02      0.1943640351E+03
          0                 2           2             4    6     1       0.9947638386E+00       4    6    1         0.5290947970E+02      0.1097148712E+03
          0                 3           2             4    6     1       0.5890255152E+00       4    6    1         0.3137527221E+02      0.5802537620E+02
          0                 4           2             4    6     1       0.3590789570E+00       4    6    1         0.1912540061E+02      0.3344877390E+02
          0                 5           2             4    6     1       0.2147751830E+00       4    6    1         0.1144213110E+02      0.1800871919E+02
          0                 6           2             4    6     1       0.1284168603E+00       4    6    1         0.6843697572E+01      0.1054557156E+02
          0                 7           2             4    6     1       0.7675170815E-01       4    6    1         0.4091744359E+01      0.6245370200E+01
          0                 8           2             4    6     1       0.4585278846E-01       4    6    1         0.2445409590E+01      0.3700985419E+01
          0                 9           2             4    6     1       0.2738242288E-01       4    6    1         0.1460841606E+01      0.2193909880E+01
          0                10           2             4    6     1       0.1634627083E-01       4    6    1         0.8723400592E+00      0.1300674434E+01
                                                   Max.-Head-Change                         Max.-Flux-Residual
  Residual-Control   Outer-Iter.   Inner-Iter.     Column Row Layer    Maximum-Head-Change  Column Row Layer    Maximum-Flux-Residual          L2-NORM 
          0                11           2             4    6     1       0.9754758004E-02       4    6    1         0.5207273944E+00      0.7712029910E+00
          0                12           2             4    6     1       0.5819357133E-02       4    6    1         0.3107329599E+00      0.4573186168E+00
          0                13           2             4    6     1       0.3470589546E-02       4    6    1         0.1853643409E+00      0.2712166981E+00
          0                14           2             4    6     1       0.2069234011E-02       4    6    1         0.1105442124E+00      0.1608635765E+00
          0                15           2             4    6     1       0.1233394036E-02       4    6    1         0.6590602011E-01      0.9541991532E-01
          0                16           2             4    6     1       0.7349997331E-03       4    6    1         0.3928268128E-01      0.5660525727E-01
          0                17           2             4    6     1       0.4378973687E-03       4    6    1         0.2340837525E-01      0.3358208283E-01
          0                18           2             4    6     1       0.2608336146E-03       4    6    1         0.1394575973E-01      0.1992455210E-01
          0                19           2             4    6     1       0.1553340576E-03       4    6    1         0.8306537666E-02      0.1182215951E-01
          0                20           1             4    6     1       0.9248838213E-04       4    6    1         0.4946643640E-02      0.7015035179E-02

    ------------------------------------------------
       NWT REQUIRED           20 OUTER ITERATIONS 
       AND A TOTAL OF         39 INNER ITERATIONS.
    ------------------------------------------------

 NO OUTPUT CONTROL FOR STRESS PERIOD   21   TIME STEP    9
 
 SOLVING FOR HEAD 
                                                   Max.-Head-Change                         Max.-Flux-Residual
  Residual-Control   Outer-Iter.   Inner-Iter.     Column Row Layer    Maximum-Head-Change  Column Row Layer    Maximum-Flux-Residual          L2-NORM 
          0                 1           2             4    6     1       0.1441977511E+01       4    6    1         0.7763029600E+02      0.1006620082E+03
          0                 2           2             4    8     1      -0.1879497749E+01       5    8    1        -0.9985696783E+02      0.2269096906E+03
          0                 3           2             4    6     1      -0.5235299020E+00       4    6    1        -0.2876334077E+02      0.4475656339E+02
          0                 4           2             4    6     1      -0.3122036531E+00       4    6    1        -0.1744267193E+02      0.1829525893E+02
          0                 5           2             4    6     1      -0.1856006836E+00       4    6    1        -0.1038177605E+02      0.1046410149E+02
          0                 6           2             4    6     1      -0.1102007123E+00       4    6    1        -0.6170266449E+01      0.6180374486E+01
          0                 7           2             4    6     1      -0.6539986935E-01       4    6    1        -0.3663090217E+01      0.3664747306E+01
          0                 8           2             4    6     1      -0.3880471946E-01       4    6    1        -0.2173756923E+01      0.2174161793E+01
          0                 9           2             4    6     1      -0.2302276929E-01       4    6    1        -0.1289740700E+01      0.1289886273E+01
          0                10           2             4    6     1      -0.1365889465E-01       4    6    1        -0.7651816073E+00      0.7652495674E+00
                                                   Max.-Head-Change                         Max.-Flux-Residual
  Residual-Control   Outer-Iter.   Inner-Iter.     Column Row Layer    Maximum-Head-Change  Column Row Layer    Maximum-Flux-Residual          L2-NORM 
          0                11           2             4    6     1      -0.8103379106E-02       4    6    1        -0.4539561196E+00      0.4539924643E+00
          0                12           2             4    6     1      -0.4807422541E-02       4    6    1        -0.2693126845E+00      0.2693333435E+00
          0                13           2             4    6     1      -0.2852036453E-02       4    6    1        -0.1597701752E+00      0.1597822214E+00
          0                14           2             4    6     1      -0.1691978690E-02       4    6    1        -0.9478321833E-01      0.9479031555E-01
          0                15           2             4    6     1      -0.1003764621E-02       4    6    1        -0.5622951347E-01      0.5623371226E-01
          0                16           2             4    6     1      -0.5954785197E-03       4    6    1        -0.3335757154E-01      0.3336005970E-01
          0                17           2             4    6     1      -0.3532625059E-03       4    6    1        -0.1978890535E-01      0.1979038077E-01
          0                18           2             4    6     1      -0.2095686035E-03       4    6    1        -0.1173941239E-01      0.1174028751E-01
          0                19           2             4    6     1      -0.1243231826E-03       4    6    1        -0.6964151066E-02      0.6964670184E-02
          0                20           1             4    6     1      -0.7375224472E-04       4    6    1        -0.4131304793E-02      0.4131612731E-02

    ------------------------------------------------
       NWT REQUIRED           20 OUTER ITERATIONS 
       AND A TOTAL OF         39 INNER ITERATIONS.
    ------------------------------------------------

 NO OUTPUT CONTROL FOR STRESS PERIOD   21   TIME STEP   10
 
 SOLVING FOR HEAD 
                                                   Max.-Head-Change                         Max.-Flux-Residual
  Residual-Control   Outer-Iter.   Inner-Iter.     Column Row Layer    Maximum-Head-Change  Column Row Layer    Maximum-Flux-Residual          L2-NORM 
          0                 1           2             4    6     1       0.5410458485E+00       4    6    1         0.2947272929E+02      0.3947916506E+02
          0                 2           2             4    6     1       0.1156760054E+00       4    6    1         0.6308462679E+01      0.6823530846E+01
          0                 3           2             4    6     1       0.1864399793E-01       4    6    1         0.1025097790E+01      0.1308712184E+01
          0                 4           2             4    6     1       0.1071305394E-01       4    6    1         0.5745376876E+00      0.9873834076E+00
          0                 5           2             4    6     1       0.2324932574E-02       4    6    1         0.1256638370E+00      0.1494352667E+00
          0                 6           2             4    6     1       0.5056992027E-03       4    6    1         0.2726635715E-01      0.3452437984E-01
          0                 7           2             4    6     1       0.1102859830E-03       4    6    1         0.5932483608E-02      0.8139451524E-02
          0                 8           1             4    7     1       0.2564184252E-04       4    7    1         0.1460189507E-02      0.1951359430E-02

    ------------------------------------------------
       NWT REQUIRED            8 OUTER ITERATIONS 
       AND A TOTAL OF         15 INNER ITERATIONS.
    ------------------------------------------------

 NO OUTPUT CONTROL FOR STRESS PERIOD   21   TIME STEP   11
 
 SOLVING FOR HEAD 
                                                   Max.-Head-Change                         Max.-Flux-Residual
  Residual-Control   Outer-Iter.   Inner-Iter.     Column Row Layer    Maximum-Head-Change  Column Row Layer    Maximum-Flux-Residual          L2-NORM 
          0                 1           2             4    6     1      -0.1911834973E+00       4    6    1        -0.1047008674E+02      0.2703184316E+02
          0                 2           2             4    7     1      -0.1914629131E+01       4    7    1        -0.1000502141E+03      0.2437467931E+03
          0                 3           2             4    8     1       0.1828834904E+00       5    8    1         0.9972160662E+01      0.2423837856E+02
          0                 4           2             4    8     1      -0.1245520225E-01       5    8    1        -0.6983196764E+00      0.1697172845E+01
          0                 5           2             4    8     1       0.4955968644E-03       5    8    1         0.2856581170E-01      0.6942711362E-01
          0                 6           1             4    8     1      -0.6110927588E-05       5    8    1        -0.3620812902E-03      0.8800735247E-03

    ------------------------------------------------
       NWT REQUIRED            6 OUTER ITERATIONS 
       AND A TOTAL OF         11 INNER ITERATIONS.
    ------------------------------------------------

 NO OUTPUT CONTROL FOR STRESS PERIOD   21   TIME STEP   12
 
 SOLVING FOR HEAD 
                                                   Max.-Head-Change                         Max.-Flux-Residual
  Residual-Control   Outer-Iter.   Inner-Iter.     Column Row Layer    Maximum-Head-Change  Column Row Layer    Maximum-Flux-Residual          L2-NORM 
          0                 1           2             5    8     1       0.2631942253E+00       5    8    1         0.1449637545E+02      0.2486804034E+02
          0                 2           2             5    8     1       0.1506662809E+00       5    8    1         0.8298819643E+01      0.8534414367E+01
          0                 3           2             5    8     1       0.8039445224E-01       5    8    1         0.4437054723E+01      0.4509742248E+01
          0                 4           2             5    8     1       0.5283941971E-01       5    8    1         0.2899517155E+01      0.3020626929E+01
          0                 5           2             5    8     1       0.3035019894E-01       5    8    1         0.1671603992E+01      0.1671870787E+01
          0                 6           2             5    8     1       0.1743268252E-01       5    8    1         0.9600702710E+00      0.9600772415E+00
          0                 7           2             5    8     1       0.1001304735E-01       5    8    1         0.5514509467E+00      0.5514544353E+00
          0                 8           1             5    8     1       0.5751325659E-02       5    8    1         0.3167445699E+00      0.3167465738E+00
          0                 9           1             5    8     1       0.3303462966E-02       5    8    1         0.1819328063E+00      0.1819339569E+00
          0                10           1             5    8     1       0.1897452037E-02       5    8    1         0.1044991099E+00      0.1044997705E+00
                                                   Max.-Head-Change                         Max.-Flux-Residual
  Residual-Control   Outer-Iter.   Inner-Iter.     Column Row Layer    Maximum-Head-Change  Column Row Layer    Maximum-Flux-Residual          L2-NORM 
          0                11           1             5    8     1       0.1089863487E-02       5    8    1         0.6002249023E-01      0.6002286961E-01
          0                12           1             5    8     1       0.6259985975E-03       5    8    1         0.3447587837E-01      0.3447609625E-01
          0                13           1             5    8     1       0.3595626681E-03       5    8    1         0.1980234485E-01      0.1980246992E-01
          0                14           1             5    8     1       0.2065265150E-03       5    8    1         0.1137412167E-01      0.1137419370E-01
          0                15           1             5    8     1       0.1186252198E-03       5    8    1         0.6533096950E-02      0.6533138492E-02
          0                16           1             5    8     1       0.6813625199E-04       5    8    1         0.3752496771E-02      0.3752520458E-02

    ------------------------------------------------
       NWT REQUIRED           16 OUTER ITERATIONS 
       AND A TOTAL OF         23 INNER ITERATIONS.
    ------------------------------------------------

 NO OUTPUT CONTROL FOR STRESS PERIOD   21   TIME STEP   13
 
 SOLVING FOR HEAD 
                                                   Max.-Head-Change                         Max.-Flux-Residual
  Residual-Control   Outer-Iter.   Inner-Iter.     Column Row Layer    Maximum-Head-Change  Column Row Layer    Maximum-Flux-Residual          L2-NORM 
          0                 1           2             4    8     1       0.2640693031E+00       4    8    1         0.1398148514E+02      0.2912972184E+02
          0                 2           2             4    6     1      -0.1872101243E+01       5    6    1        -0.1001234882E+03      0.2384877094E+03
          0                 3           2             4    8     1      -0.2839401916E+00       4    8    1        -0.1559948038E+02      0.2687143275E+02
          0                 4           2             4    8     1       0.1933326901E-01       4    8    1         0.1091801974E+01      0.1881299621E+01
          0                 5           2             4    8     1      -0.7694940723E-03       4    8    1        -0.4466682807E-01      0.7696343202E-01
          0                 6           1             4    8     1       0.9495203617E-05       4    8    1         0.5664843143E-03      0.9759651491E-03

    ------------------------------------------------
       NWT REQUIRED            6 OUTER ITERATIONS 
       AND A TOTAL OF         11 INNER ITERATIONS.
    ------------------------------------------------

 NO OUTPUT CONTROL FOR STRESS PERIOD   21   TIME STEP   14
 
 SOLVING FOR HEAD 
                                                   Max.-Head-Change                         Max.-Flux-Residual
  Residual-Control   Outer-Iter.   Inner-Iter.     Column Row Layer    Maximum-Head-Change  Column Row Layer    Maximum-Flux-Residual          L2-NORM 
          0                 1           2             5    8     1       0.4499832314E+00       5    8    1         0.2471710098E+02      0.2861822839E+02
          0                 2           2             5    8     1       0.2575091939E+00       5    8    1         0.1420559500E+02      0.1435328741E+02
          0                 3           2             5    8     1       0.1415163691E+00       5    8    1         0.7814710840E+01      0.7845995261E+01
          0                 4           2             5    8     1       0.8781845670E-01       5    8    1         0.4831850911E+01      0.4905702823E+01
          0                 5           2             5    8     1       0.5022946064E-01       5    8    1         0.2772879706E+01      0.2775314335E+01
          0                 6           2             5    8     1       0.2877021032E-01       5    8    1         0.1588230107E+01      0.1588585884E+01
          0                 7           2             5    8     1       0.1647871561E-01       5    8    1         0.9097008910E+00      0.9097581078E+00
          0                 8           2             5    8     1       0.9438467607E-02       5    8    1         0.5210501669E+00      0.5210617176E+00
          0                 9           1             5    8     1       0.5406030241E-02       5    8    1         0.2984406595E+00      0.2984441038E+00
          0                10           1             5    8     1       0.3096384219E-02       5    8    1         0.1709366402E+00      0.1709381114E+00
                                                   Max.-Head-Change                         Max.-Flux-Residual
  Residual-Control   Outer-Iter.   Inner-Iter.     Column Row Layer    Maximum-Head-Change  Column Row Layer    Maximum-Flux-Residual          L2-NORM 
          0                11           1             5    8     1       0.1773498798E-02       5    8    1         0.9790652849E-01      0.9790728446E-01
          0                12           1             5    8     1       0.1015796659E-02       5    8    1         0.5607738763E-01      0.5607780378E-01
          0                13           1             5    8     1       0.5818118596E-03       5    8    1         0.3211912444E-01      0.3211935908E-01
          0                14           1             5    8     1       0.3332409084E-03       5    8    1         0.1839668260E-01      0.1839681608E-01
          0                15           1             5    8     1       0.1908683953E-03       5    8    1         0.1053695862E-01      0.1053703483E-01
          0                16           1             5    8     1       0.1093225418E-03       5    8    1         0.6035190763E-02      0.6035234361E-02
          0                17           1             5    8     1       0.6261601326E-04       5    8    1         0.3456739974E-02      0.3456764957E-02

    ------------------------------------------------
       NWT REQUIRED           17 OUTER ITERATIONS 
       AND A TOTAL OF         25 INNER ITERATIONS.
    ------------------------------------------------

 NO OUTPUT CONTROL FOR STRESS PERIOD   21   TIME STEP   15
 
 SOLVING FOR HEAD 
                                                   Max.-Head-Change                         Max.-Flux-Residual
  Residual-Control   Outer-Iter.   Inner-Iter.     Column Row Layer    Maximum-Head-Change  Column Row Layer    Maximum-Flux-Residual          L2-NORM 
          0                 1           2             4    8     1       0.9669539140E+00       4    8    1         0.5182019765E+02      0.7468977314E+02
          0                 2           2             4    6     1      -0.1871886835E+01       4    6    1        -0.9949543302E+02      0.2121461929E+03
          0                 3           2             5    7     1      -0.8812581099E+00       5    7    1        -0.4872015406E+02      0.8375680810E+02
          0                 4           2             4    8     1      -0.4590792137E+00       4    8    1        -0.2572002631E+02      0.2621882111E+02
          0                 5           2             4    8     1      -0.1479830604E+00       4    8    1        -0.8262956641E+01      0.8268143457E+01
          0                 6           2             4    8     1       0.1008110361E-01       4    8    1         0.5789955649E+00      0.5791268978E+00
          0                 7           2             4    8     1      -0.4014224372E-03       4    8    1        -0.2370226995E-01      0.2370871973E-01
          0                 8           1             4    8     1       0.4960736026E-05       4    8    1         0.3010177059E-03      0.3010703260E-03

    ------------------------------------------------
       NWT REQUIRED            8 OUTER ITERATIONS 
       AND A TOTAL OF         15 INNER ITERATIONS.
    ------------------------------------------------

 NO OUTPUT CONTROL FOR STRESS PERIOD   21   TIME STEP   16
 
 SOLVING FOR HEAD 
                                                   Max.-Head-Change                         Max.-Flux-Residual
  Residual-Control   Outer-Iter.   Inner-Iter.     Column Row Layer    Maximum-Head-Change  Column Row Layer    Maximum-Flux-Residual          L2-NORM 
          0                 1           2             4    7     1       0.9267025849E+00       4    7    1         0.4965472922E+02      0.8152566543E+02
          0                 2           2             4    7     1       0.2692780853E+00       4    7    1         0.1439953380E+02      0.2669146718E+02
          0                 3           2             5    8     1       0.1472820828E+00       5    8    1         0.8046524443E+01      0.1001513458E+02
          0                 4           2             5    8     1       0.9170035312E-01       5    8    1         0.5022677987E+01      0.5610084570E+01
          0                 5           2             5    8     1       0.5285167823E-01       5    8    1         0.2903840533E+01      0.2997983490E+01
          0                 6           2             5    8     1       0.3039691399E-01       5    8    1         0.1672741392E+01      0.1688925571E+01
          0                 7           2             5    8     1       0.1746364122E-01       5    8    1         0.9617932501E+00      0.9649781326E+00
          0                 8           2             5    8     1       0.1002774917E-01       5    8    1         0.5524936604E+00      0.5532762096E+00
          0                 9           2             5    8     1       0.5756409828E-02       5    8    1         0.3172236745E+00      0.3174758328E+00
          0                10           2             5    8     1       0.3303989525E-02       5    8    1         0.1820951592E+00      0.1821982288E+00
                                                   Max.-Head-Change                         Max.-Flux-Residual
  Residual-Control   Outer-Iter.   Inner-Iter.     Column Row Layer    Maximum-Head-Change  Column Row Layer    Maximum-Flux-Residual          L2-NORM 
          0                11           1             5    8     1       0.1896244901E-02       5    8    1         0.1045147322E+00      0.1045640496E+00
          0                12           1             5    8     1       0.1088264139E-02       5    8    1         0.5998315306E-01      0.6000892643E-01
          0                13           1             5    8     1       0.6245484522E-03       5    8    1         0.3442446186E-01      0.3443856483E-01
          0                14           1             5    8     1       0.3584213301E-03       5    8    1         0.1975595147E-01      0.1976385161E-01
          0                15           1             5    8     1       0.2056929799E-03       5    8    1         0.1133770468E-01      0.1134218315E-01
          0                16           1             5    8     1       0.1180440306E-03       5    8    1         0.6506545913E-02      0.6509100071E-02
          0                17           1             5    8     1       0.6774356565E-04       5    8    1         0.3734005261E-02      0.3735466422E-02

    ------------------------------------------------
       NWT REQUIRED           17 OUTER ITERATIONS 
       AND A TOTAL OF         27 INNER ITERATIONS.
    ------------------------------------------------

 NO OUTPUT CONTROL FOR STRESS PERIOD   21   TIME STEP   17
 
 SOLVING FOR HEAD 
                                                   Max.-Head-Change                         Max.-Flux-Residual
  Residual-Control   Outer-Iter.   Inner-Iter.     Column Row Layer    Maximum-Head-Change  Column Row Layer    Maximum-Flux-Residual          L2-NORM 
          0                 1           2             4    8     1       0.1092439259E+01       4    8    1         0.5859614726E+02      0.9200892569E+02
          0                 2           2             4    6     1      -0.1649469066E+01       5    8    1        -0.8994713103E+02      0.2044639046E+03
          0                 3           2             5    7     1      -0.8257330976E+00       5    7    1        -0.4567178326E+02      0.8048449116E+02
          0                 4           2             4    8     1      -0.4431202735E+00       4    8    1        -0.2463606546E+02      0.3464576439E+02
          0                 5           2             4    8     1      -0.2644893610E+00       4    8    1        -0.1473490599E+02      0.1524977608E+02
          0                 6           2             4    8     1      -0.1360718081E+00       4    8    1        -0.7602262590E+01      0.7647140281E+01
          0                 7           2             4    8     1       0.9270992192E-02       4    8    1         0.5325347015E+00      0.5326786254E+00
          0                 8           2             4    8     1      -0.3692517820E-03       4    8    1        -0.2180102561E-01      0.2180630929E-01
          0                 9           1             4    8     1       0.4566554789E-05       4    8    1         0.2770893086E-03      0.2771530702E-03

    ------------------------------------------------
       NWT REQUIRED            9 OUTER ITERATIONS 
       AND A TOTAL OF         17 INNER ITERATIONS.
    ------------------------------------------------

 NO OUTPUT CONTROL FOR STRESS PERIOD   21   TIME STEP   18
 
 SOLVING FOR HEAD 
                                                   Max.-Head-Change                         Max.-Flux-Residual
  Residual-Control   Outer-Iter.   Inner-Iter.     Column Row Layer    Maximum-Head-Change  Column Row Layer    Maximum-Flux-Residual          L2-NORM 
          0                 1           2             4    8     1       0.1001897199E+01       4    8    1         0.5335437151E+02      0.1076347269E+03
          0                 2           2             4    8     1       0.2944941357E+00       4    8    1         0.1556985171E+02      0.3601562843E+02
          0                 3           2             5    8     1       0.1630180949E+00       5    8    1         0.8866536302E+01      0.1410855149E+02
          0                 4           2             5    8     1       0.1010128875E+00       5    8    1         0.5525217691E+01      0.7911144972E+01
          0                 5           2             5    8     1       0.5824557684E-01       5    8    1         0.3199506839E+01      0.4333330341E+01
          0                 6           2             5    8     1       0.3348940230E-01       5    8    1         0.1843531287E+01      0.2467699284E+01
          0                 7           2             5    8     1       0.1922780036E-01       5    8    1         0.1059583828E+01      0.1419588499E+01
          0                 8           2             5    8     1       0.1103161257E-01       5    8    1         0.6082434538E+00      0.8186035971E+00
          0                 9           2             5    8     1       0.6326899504E-02       5    8    1         0.3489366185E+00      0.4723010464E+00
          0                10           2             5    8     1       0.3627969362E-02       5    8    1         0.2001143381E+00      0.2725362665E+00
                                                   Max.-Head-Change                         Max.-Flux-Residual
  Residual-Control   Outer-Iter.   Inner-Iter.     Column Row Layer    Maximum-Head-Change  Column Row Layer    Maximum-Flux-Residual          L2-NORM 
          0                11           2             5    8     1       0.2080158595E-02       5    8    1         0.1147468262E+00      0.1572755509E+00
          0                12           2             5    8     1       0.1192639909E-02       5    8    1         0.6579128969E-01      0.9076744632E-01
          0                13           2             5    8     1       0.6837735913E-03       5    8    1         0.3772061218E-01      0.5238838364E-01
          0                14           2             5    8     1       0.3920220343E-03       5    8    1         0.2162621185E-01      0.3023979350E-01
          0                15           2             4    6     1       0.2252458545E-03       5    8    1         0.1239875261E-01      0.1745674678E-01
          0                16           2             4    6     1       0.1309578947E-03       4    6    1         0.7138610813E-02      0.1007834911E-01
          0                17           1             4    6     1       0.7613872240E-04       4    6    1         0.4150384915E-02      0.5819123132E-02

    ------------------------------------------------
       NWT REQUIRED           17 OUTER ITERATIONS 
       AND A TOTAL OF         33 INNER ITERATIONS.
    ------------------------------------------------

 NO OUTPUT CONTROL FOR STRESS PERIOD   21   TIME STEP   19
 
 SOLVING FOR HEAD 
                                                   Max.-Head-Change                         Max.-Flux-Residual
  Residual-Control   Outer-Iter.   Inner-Iter.     Column Row Layer    Maximum-Head-Change  Column Row Layer    Maximum-Flux-Residual          L2-NORM 
          0                 1           2             4    8     1       0.1011071124E+01       4    8    1         0.5413080650E+02      0.9694719795E+02
          0                 2           2             4    7     1      -0.1722776431E+01       4    7    1        -0.9321205533E+02      0.2064241567E+03
          0                 3           2             5    7     1      -0.8487103531E+00       5    7    1        -0.4735368204E+02      0.7597282145E+02
          0                 4           2             4    8     1      -0.4576373657E+00       4    8    1        -0.2544159962E+02      0.3021815767E+02
          0                 5           2             4    8     1      -0.2384330023E+00       4    8    1        -0.1327606784E+02      0.1380582920E+02
          0                 6           2             4    8     1       0.1596452431E-01       4    8    1         0.9298936106E+00      0.1491107218E+01
          0                 7           2             5    8     1      -0.4578757986E-02       5    8    1        -0.2592215994E+00      0.3484324741E+00
          0                 8           2             5    8     1      -0.1365377564E-02       5    8    1        -0.7747138658E-01      0.1041058039E+00
          0                 9           2             5    8     1      -0.4071442219E-03       5    8    1        -0.2309890253E-01      0.3125793120E-01
          0                10           2             5    8     1      -0.1214043573E-03       5    8    1        -0.6887712069E-02      0.9386669524E-02
          0                11           1             5    8     1      -0.3620018428E-04       5    8    1        -0.2053748604E-02      0.2819057786E-02

    ------------------------------------------------
       NWT REQUIRED           11 OUTER ITERATIONS 
       AND A TOTAL OF         21 INNER ITERATIONS.
    ------------------------------------------------

 NO OUTPUT CONTROL FOR STRESS PERIOD   21   TIME STEP   20
 
 SOLVING FOR HEAD 
                                                   Max.-Head-Change                         Max.-Flux-Residual
  Residual-Control   Outer-Iter.   Inner-Iter.     Column Row Layer    Maximum-Head-Change  Column Row Layer    Maximum-Flux-Residual          L2-NORM 
          0                 1           2             4    8     1       0.1003428150E+01       4    8    1         0.5350331396E+02      0.1060952987E+03
          0                 2           2             4    7     1       0.2990023250E+00       4    7    1         0.1570360691E+02      0.3529960561E+02
          0                 3           2             5    8     1       0.1452020209E+00       5    8    1         0.7882834495E+01      0.1288193230E+02
          0                 4           2             5    8     1       0.9080890516E-01       5    8    1         0.4961835598E+01      0.7010781136E+01
          0                 5           2             5    8     1       0.5239992204E-01       5    8    1         0.2876830095E+01      0.3758894702E+01
          0                 6           2             5    8     1       0.3013991145E-01       5    8    1         0.1658667866E+01      0.2126739576E+01
          0                 7           2             5    8     1       0.1730834172E-01       5    8    1         0.9536562610E+00      0.1221057103E+01
          0                 8           2             5    8     1       0.9931562471E-02       5    8    1         0.5475394757E+00      0.7035620483E+00
          0                 9           2             5    8     1       0.5696426677E-02       5    8    1         0.3141465071E+00      0.4057162876E+00
          0                10           2             5    8     1       0.3266615972E-02       5    8    1         0.1801749111E+00      0.2340071388E+00
                                                   Max.-Head-Change                         Max.-Flux-Residual
  Residual-Control   Outer-Iter.   Inner-Iter.     Column Row Layer    Maximum-Head-Change  Column Row Layer    Maximum-Flux-Residual          L2-NORM 
          0                11           2             5    8     1       0.1873046815E-02       5    8    1         0.1033185652E+00      0.1349811542E+00
          0                12           2             5    8     1       0.1073931487E-02       5    8    1         0.5924110084E-01      0.7786662560E-01
          0                13           2             5    8     1       0.6157341527E-03       5    8    1         0.3396629344E-01      0.4492288946E-01
          0                14           2             5    8     1       0.3530241105E-03       5    8    1         0.1947436833E-01      0.2591943630E-01
          0                15           2             5    8     1       0.2024010924E-03       5    8    1         0.1116538746E-01      0.1495640142E-01
          0                16           1             5    8     1       0.1160433250E-03       5    8    1         0.6401502942E-02      0.8631248100E-02
          0                17           1             5    8     1       0.6653145988E-04       5    8    1         0.3670194822E-02      0.4981564019E-02

    ------------------------------------------------
       NWT REQUIRED           17 OUTER ITERATIONS 
       AND A TOTAL OF         32 INNER ITERATIONS.
    ------------------------------------------------

 NO OUTPUT CONTROL FOR STRESS PERIOD   21   TIME STEP   21
 
 SOLVING FOR HEAD 
                                                   Max.-Head-Change                         Max.-Flux-Residual
  Residual-Control   Outer-Iter.   Inner-Iter.     Column Row Layer    Maximum-Head-Change  Column Row Layer    Maximum-Flux-Residual          L2-NORM 
          0                 1           2             4    6     1       0.1131183392E+01       4    6    1         0.6148214273E+02      0.1016306975E+03
          0                 2           2             4    7     1      -0.1794924996E+01       4    7    1        -0.9721283515E+02      0.2093949411E+03
          0                 3           2             5    7     1      -0.8704464097E+00       5    7    1        -0.4892876984E+02      0.7533655237E+02
          0                 4           2             4    8     1      -0.4714471832E+00       4    8    1        -0.2620623161E+02      0.2865324880E+02
          0                 5           2             4    8     1      -0.6024558609E-01       4    8    1        -0.3325826153E+01      0.4875722026E+01
          0                 6           2             5    8     1      -0.1408534970E-01       5    8    1        -0.8025848659E+00      0.1108281796E+01
          0                 7           2             5    8     1      -0.4200395296E-02       5    8    1        -0.2381706320E+00      0.3246756624E+00
          0                 8           2             5    8     1      -0.1252571940E-02       5    8    1        -0.7106507925E-01      0.9750274074E-01
          0                 9           2             5    8     1      -0.3735129143E-03       5    8    1        -0.2119063278E-01      0.2928721244E-01
          0                10           2             5    8     1      -0.1113779090E-03       5    8    1        -0.6318786752E-02      0.8798074493E-02
          0                11           1             5    8     1      -0.3321108108E-04       5    8    1        -0.1884141404E-02      0.2643254900E-02

    ------------------------------------------------
       NWT REQUIRED           11 OUTER ITERATIONS 
       AND A TOTAL OF         21 INNER ITERATIONS.
    ------------------------------------------------

 NO OUTPUT CONTROL FOR STRESS PERIOD   21   TIME STEP   22
 
 SOLVING FOR HEAD 
                                                   Max.-Head-Change                         Max.-Flux-Residual
  Residual-Control   Outer-Iter.   Inner-Iter.     Column Row Layer    Maximum-Head-Change  Column Row Layer    Maximum-Flux-Residual          L2-NORM 
          0                 1           2             4    8     1       0.1005295921E+01       4    8    1         0.5374823292E+02      0.1002320258E+03
          0                 2           2             4    7     1       0.3955218806E+00       4    7    1         0.2100479470E+02      0.3858130653E+02
          0                 3           2             5    8     1       0.1253399564E+00       5    8    1         0.6784749310E+01      0.1269545629E+02
          0                 4           2             5    8     1       0.7944607069E-01       5    8    1         0.4333894940E+01      0.6350802579E+01
          0                 5           2             5    8     1       0.4589529257E-01       5    8    1         0.2517564447E+01      0.3237434850E+01
          0                 6           2             5    8     1       0.2641446335E-01       5    8    1         0.1452986178E+01      0.1801710823E+01
          0                 7           2             5    8     1       0.1517389759E-01       5    8    1         0.8358458533E+00      0.1029494419E+01
          0                 8           2             5    8     1       0.8708395448E-02       5    8    1         0.4800382991E+00      0.5921929906E+00
          0                 9           2             5    8     1       0.4995385340E-02       5    8    1         0.2754630262E+00      0.3411785767E+00
          0                10           2             5    8     1       0.2864793091E-02       5    8    1         0.1580036047E+00      0.1966330185E+00
                                                   Max.-Head-Change                         Max.-Flux-Residual
  Residual-Control   Outer-Iter.   Inner-Iter.     Column Row Layer    Maximum-Head-Change  Column Row Layer    Maximum-Flux-Residual          L2-NORM 
          0                11           2             5    8     1       0.1642719898E-02       5    8    1         0.9061028207E-01      0.1133388147E+00
          0                12           2             5    8     1       0.9419036487E-03       5    8    1         0.5195660477E-01      0.6533307963E-01
          0                13           2             5    8     1       0.5400521749E-03       5    8    1         0.2979066539E-01      0.3766363601E-01
          0                14           2             5    8     1       0.3096407687E-03       5    8    1         0.1708077915E-01      0.2171450282E-01
          0                15           2             5    8     1       0.1775322429E-03       5    8    1         0.9793303660E-02      0.1252041738E-01
          0                16           1             5    8     1       0.1017875850E-03       5    8    1         0.5614975973E-02      0.7219891493E-02
          0                17           1             5    8     1       0.5835952649E-04       5    8    1         0.3219328408E-02      0.4163767744E-02

    ------------------------------------------------
       NWT REQUIRED           17 OUTER ITERATIONS 
       AND A TOTAL OF         32 INNER ITERATIONS.
    ------------------------------------------------

 NO OUTPUT CONTROL FOR STRESS PERIOD   21   TIME STEP   23
 
 SOLVING FOR HEAD 
                                                   Max.-Head-Change                         Max.-Flux-Residual
  Residual-Control   Outer-Iter.   Inner-Iter.     Column Row Layer    Maximum-Head-Change  Column Row Layer    Maximum-Flux-Residual          L2-NORM 
          0                 1           2             4    6     1       0.1292348253E+01       4    6    1         0.7036669017E+02      0.1073833987E+03
          0                 2           2             4    7     1      -0.1828839733E+01       4    7    1        -0.9907389306E+02      0.2116622252E+03
          0                 3           2             5    7     1      -0.8177539184E+00       5    7    1        -0.4613544367E+02      0.7411858440E+02
          0                 4           2             4    8     1      -0.4076020985E+00       4    8    1        -0.2264129033E+02      0.2545676235E+02
          0                 5           2             5    8     1      -0.4423145962E-01       5    8    1        -0.2531078884E+01      0.3784978671E+01
          0                 6           2             5    8     1      -0.1319082811E-01       5    8    1        -0.7474499548E+00      0.1028027750E+01
          0                 7           2             5    8     1      -0.3933696870E-02       5    8    1        -0.2231853020E+00      0.3083893485E+00
          0                 8           2             5    8     1      -0.1173059339E-02       5    8    1        -0.6655131421E-01      0.9264473633E-01
          0                 9           2             5    8     1      -0.3498078124E-03       5    8    1        -0.1984554343E-01      0.2783533965E-01
          0                10           1             4    6     1      -0.1054962046E-03       5    8    1        -0.5917780183E-02      0.8364001857E-02
          0                11           1             4    6     1      -0.3194703843E-04       4    6    1        -0.1789873918E-02      0.2513471822E-02

    ------------------------------------------------
       NWT REQUIRED           11 OUTER ITERATIONS 
       AND A TOTAL OF         20 INNER ITERATIONS.
    ------------------------------------------------

 NO OUTPUT CONTROL FOR STRESS PERIOD   21   TIME STEP   24
 
 SOLVING FOR HEAD 
                                                   Max.-Head-Change                         Max.-Flux-Residual
  Residual-Control   Outer-Iter.   Inner-Iter.     Column Row Layer    Maximum-Head-Change  Column Row Layer    Maximum-Flux-Residual          L2-NORM 
          0                 1           2             4    8     1       0.1007913221E+01       4    8    1         0.5402241645E+02      0.9542941675E+02
          0                 2           2             5    6     1       0.4260649933E+00       5    6    1         0.2317729600E+02      0.3971235689E+02
          0                 3           2             4    7     1       0.2039475451E+00       4    7    1         0.1095318181E+02      0.1539799732E+02
          0                 4           2             5    8     1       0.6946859071E-01       5    8    1         0.3781571055E+01      0.6432849993E+01
          0                 5           2             5    8     1       0.4019342338E-01       5    8    1         0.2202194138E+01      0.2911340986E+01
          0                 6           2             5    8     1       0.2315272108E-01       5    8    1         0.1272732568E+01      0.1543263391E+01
          0                 7           2             5    8     1       0.1330655196E-01       5    8    1         0.7327165416E+00      0.8691020662E+00
          0                 8           2             5    8     1       0.7638770198E-02       5    8    1         0.4209901555E+00      0.4978054727E+00
          0                 9           2             5    8     1       0.4382493350E-02       5    8    1         0.2416374272E+00      0.2863304014E+00
          0                10           2             5    8     1       0.2513537454E-02       5    8    1         0.1386207496E+00      0.1648539397E+00
                                                   Max.-Head-Change                         Max.-Flux-Residual
  Residual-Control   Outer-Iter.   Inner-Iter.     Column Row Layer    Maximum-Head-Change  Column Row Layer    Maximum-Flux-Residual          L2-NORM 
          0                11           2             5    8     1       0.1441387674E-02       5    8    1         0.7950143614E-01      0.9493647760E-01
          0                12           2             5    8     1       0.8264966391E-03       5    8    1         0.4558915136E-01      0.5467698947E-01
          0                13           2             5    8     1       0.4738964508E-03       5    8    1         0.2614070154E-01      0.3149245565E-01
          0                14           2             5    8     1       0.2717169638E-03       5    8    1         0.1498846931E-01      0.1814018903E-01
          0                15           1             5    8     1       0.1557921361E-03       5    8    1         0.8593882469E-02      0.1044993832E-01
          0                16           1             5    8     1       0.8932481546E-04       5    8    1         0.4927397601E-02      0.6020389082E-02

    ------------------------------------------------
       NWT REQUIRED           16 OUTER ITERATIONS 
       AND A TOTAL OF         30 INNER ITERATIONS.
    ------------------------------------------------

 NO OUTPUT CONTROL FOR STRESS PERIOD   21   TIME STEP   25
 
 SOLVING FOR HEAD 
                                                   Max.-Head-Change                         Max.-Flux-Residual
  Residual-Control   Outer-Iter.   Inner-Iter.     Column Row Layer    Maximum-Head-Change  Column Row Layer    Maximum-Flux-Residual          L2-NORM 
          0                 1           2             4    6     1       0.1439969438E+01       4    6    1         0.7841176809E+02      0.1134036443E+03
          0                 2           2             4    7     1      -0.1827904378E+01       4    7    1        -0.9898337408E+02      0.2119362452E+03
          0                 3           2             4    8     1      -0.8378110530E+00       4    8    1        -0.4638199687E+02      0.7027356856E+02
          0                 4           2             4    8     1      -0.2573916805E+00       4    8    1        -0.1425380524E+02      0.1816258516E+02
          0                 5           2             5    8     1      -0.4285158726E-01       5    8    1        -0.2444404932E+01      0.3476102811E+01
          0                 6           2             5    8     1      -0.1277947649E-01       5    8    1        -0.7244561586E+00      0.9970392038E+00
          0                 7           2             5    8     1      -0.3811077613E-02       5    8    1        -0.2162218323E+00      0.2993853866E+00
          0                 8           2             5    8     1      -0.1136508730E-02       5    8    1        -0.6447703070E-01      0.8994495400E-01
          0                 9           2             4    6     1      -0.3389719868E-03       5    8    1        -0.1922723928E-01      0.2702543527E-01
          0                10           1             4    6     1      -0.1026532649E-03       4    6    1        -0.5751272581E-02      0.8121019791E-02
          0                11           1             4    6     1      -0.3108653322E-04       4    6    1        -0.1741644420E-02      0.2440567038E-02

    ------------------------------------------------
       NWT REQUIRED           11 OUTER ITERATIONS 
       AND A TOTAL OF         20 INNER ITERATIONS.
    ------------------------------------------------

 NO OUTPUT CONTROL FOR STRESS PERIOD   21   TIME STEP   26
 
 SOLVING FOR HEAD 
                                                   Max.-Head-Change                         Max.-Flux-Residual
  Residual-Control   Outer-Iter.   Inner-Iter.     Column Row Layer    Maximum-Head-Change  Column Row Layer    Maximum-Flux-Residual          L2-NORM 
          0                 1           2             4    8     1       0.1010984310E+01       4    8    1         0.5431160093E+02      0.9161253147E+02
          0                 2           2             5    6     1       0.4256153332E+00       5    6    1         0.2319519602E+02      0.3748438059E+02
          0                 3           2             4    7     1       0.1891893817E+00       4    7    1         0.1016408688E+02      0.1609874723E+02
          0                 4           2             4    7     1       0.1180894911E+00       4    7    1         0.6367548211E+01      0.8241953795E+01
          0                 5           2             4    7     1       0.6930894501E-01       4    7    1         0.3749559209E+01      0.4440088119E+01
          0                 6           2             4    7     1       0.4059501669E-01       4    7    1         0.2199462081E+01      0.2542001661E+01
          0                 7           2             4    7     1       0.2375582919E-01       4    7    1         0.1287921882E+01      0.1478764287E+01
          0                 8           2             4    7     1       0.1388911414E-01       4    7    1         0.7535679385E+00      0.8635932051E+00
          0                 9           2             4    7     1       0.8119700723E-02       4    7    1         0.4405436332E+00      0.5046683872E+00
          0                10           2             4    7     1       0.4747317875E-02       4    7    1         0.2575458101E+00      0.2950733559E+00
                                                   Max.-Head-Change                         Max.-Flux-Residual
  Residual-Control   Outer-Iter.   Inner-Iter.     Column Row Layer    Maximum-Head-Change  Column Row Layer    Maximum-Flux-Residual          L2-NORM 
          0                11           2             4    7     1       0.2776052592E-02       4    7    1         0.1505810227E+00      0.1725972408E+00
          0                12           2             4    7     1       0.1623646511E-02       4    7    1         0.8805633197E-01      0.1009977127E+00
          0                13           2             4    7     1       0.9498295467E-03       4    7    1         0.5150353002E-01      0.5912381976E-01
          0                14           2             4    7     1       0.5557668288E-03       4    7    1         0.3013037360E-01      0.3462463952E-01
          0                15           2             4    7     1       0.3252616733E-03       4    7    1         0.1763051739E-01      0.2028509943E-01
          0                16           1             4    7     1       0.1903996561E-03       4    7    1         0.1031855687E-01      0.1188870364E-01
          0                17           1             4    7     1       0.1114786374E-03       4    7    1         0.6040401319E-02      0.6970327391E-02
          0                18           1             4    7     1       0.6528424152E-04       4    7    1         0.3536752962E-02      0.4088167581E-02

    ------------------------------------------------
       NWT REQUIRED           18 OUTER ITERATIONS 
       AND A TOTAL OF         33 INNER ITERATIONS.
    ------------------------------------------------

 NO OUTPUT CONTROL FOR STRESS PERIOD   21   TIME STEP   27
 
 SOLVING FOR HEAD 
                                                   Max.-Head-Change                         Max.-Flux-Residual
  Residual-Control   Outer-Iter.   Inner-Iter.     Column Row Layer    Maximum-Head-Change  Column Row Layer    Maximum-Flux-Residual          L2-NORM 
          0                 1           2             4    6     1       0.1574312577E+01       4    6    1         0.8572954655E+02      0.1193740952E+03
          0                 2           2             4    7     1      -0.1825885151E+01       4    7    1        -0.9883067407E+02      0.2122342210E+03
          0                 3           2             4    8     1      -0.8606475405E+00       4    8    1        -0.4765742613E+02      0.6709914635E+02
          0                 4           2             5    8     1      -0.1392754821E+00       5    8    1        -0.7838566658E+01      0.1251688834E+02
          0                 5           2             5    8     1      -0.4154009555E-01       5    8    1        -0.2361882488E+01      0.3256453999E+01
          0                 6           2             5    8     1      -0.1238849568E-01       5    8    1        -0.7026081074E+00      0.9681089291E+00
          0                 7           2             5    8     1      -0.3694526269E-02       5    8    1        -0.2096030518E+00      0.2908409025E+00
          0                 8           2             5    8     1      -0.1101765548E-02       5    8    1        -0.6250538327E-01      0.8738283936E-01
          0                 9           2             4    6     1      -0.3300719378E-03       5    8    1        -0.1863950574E-01      0.2625681345E-01
          0                10           1             4    6     1      -0.9995918494E-04       4    6    1        -0.5600280105E-02      0.7890418480E-02

    ------------------------------------------------
       NWT REQUIRED           10 OUTER ITERATIONS 
       AND A TOTAL OF         19 INNER ITERATIONS.
    ------------------------------------------------

 NO OUTPUT CONTROL FOR STRESS PERIOD   21   TIME STEP   28
 
 SOLVING FOR HEAD 
                                                   Max.-Head-Change                         Max.-Flux-Residual
  Residual-Control   Outer-Iter.   Inner-Iter.     Column Row Layer    Maximum-Head-Change  Column Row Layer    Maximum-Flux-Residual          L2-NORM 
          0                 1           2             4    8     1       0.1014249834E+01       4    8    1         0.5460021507E+02      0.8869082451E+02
          0                 2           2             5    6     1       0.3890201807E+00       5    6    1         0.2118427646E+02      0.3459364268E+02
          0                 3           2             5    6     1       0.2189759656E+00       5    6    1         0.1200187801E+02      0.1636047119E+02
          0                 4           2             5    6     1       0.1100614576E+00       5    6    1         0.6032153233E+01      0.8861676983E+01
          0                 5           2             4    7     1       0.5788454357E-01       4    7    1         0.3134557536E+01      0.4009265426E+01
          0                 6           2             4    7     1       0.3383198858E-01       4    7    1         0.1836615553E+01      0.2145842899E+01
          0                 7           2             4    7     1       0.1974040783E-01       4    7    1         0.1073000367E+01      0.1220723385E+01
          0                 8           2             4    7     1       0.1150816304E-01       4    7    1         0.6259421642E+00      0.7057198237E+00
          0                 9           2             4    7     1       0.6705955284E-02       4    7    1         0.3648678390E+00      0.4095390818E+00
          0                10           2             4    7     1       0.3906736146E-02       4    7    1         0.2126009555E+00      0.2378639106E+00
                                                   Max.-Head-Change                         Max.-Flux-Residual
  Residual-Control   Outer-Iter.   Inner-Iter.     Column Row Layer    Maximum-Head-Change  Column Row Layer    Maximum-Flux-Residual          L2-NORM 
          0                11           2             4    7     1       0.2275696665E-02       4    7    1         0.1238527493E+00      0.1381804541E+00
          0                12           1             4    7     1       0.1325519357E-02       4    7    1         0.7214381512E-01      0.8027716150E-01
          0                13           1             4    7     1       0.7720433641E-03       4    7    1         0.4202106960E-01      0.4663974354E-01
          0                14           1             4    7     1       0.4496634693E-03       4    7    1         0.2447488250E-01      0.2709813575E-01
          0                15           1             4    7     1       0.2618949141E-03       4    7    1         0.1425493474E-01      0.1574500851E-01
          0                16           1             4    7     1       0.1525322712E-03       4    7    1         0.8302403016E-02      0.9148864660E-02
          0                17           1             4    7     1       0.8883671450E-04       4    7    1         0.4835460234E-02      0.5316336268E-02

    ------------------------------------------------
       NWT REQUIRED           17 OUTER ITERATIONS 
       AND A TOTAL OF         28 INNER ITERATIONS.
    ------------------------------------------------

 NO OUTPUT CONTROL FOR STRESS PERIOD   21   TIME STEP   29
 
 SOLVING FOR HEAD 
                                                   Max.-Head-Change                         Max.-Flux-Residual
  Residual-Control   Outer-Iter.   Inner-Iter.     Column Row Layer    Maximum-Head-Change  Column Row Layer    Maximum-Flux-Residual          L2-NORM 
          0                 1           2             4    6     1       0.1627241876E+01       4    6    1         0.8846406093E+02      0.1228090135E+03
          0                 2           2             5    6     1      -0.1787603493E+01       5    6    1        -0.9871513103E+02      0.2117512514E+03
          0                 3           2             4    8     1      -0.8861424369E+00       4    8    1        -0.4891257246E+02      0.6548582219E+02
          0                 4           2             5    8     1      -0.1349730120E+00       5    8    1        -0.7706157117E+01      0.1089348217E+02
          0                 5           2             5    8     1      -0.4028683625E-01       5    8    1        -0.2282106484E+01      0.3165627576E+01
          0                 6           2             5    8     1      -0.1202433448E-01       5    8    1        -0.6817681582E+00      0.9514823950E+00
          0                 7           2             5    8     1      -0.3588788127E-02       5    8    1        -0.2034703765E+00      0.2860161366E+00
          0                 8           2             4    6     1      -0.1086543918E-02       4    6    1        -0.6087534952E-01      0.8598579311E-01
          0                 9           2             4    6     1      -0.3290576567E-03       4    6    1        -0.1843580702E-01      0.2585232387E-01
          0                10           1             4    6     1      -0.9965228848E-04       4    6    1        -0.5583074568E-02      0.7773374154E-02

    ------------------------------------------------
       NWT REQUIRED           10 OUTER ITERATIONS 
       AND A TOTAL OF         19 INNER ITERATIONS.
    ------------------------------------------------

 NO OUTPUT CONTROL FOR STRESS PERIOD   21   TIME STEP   30



 STREAM LISTING     PERIOD     21   STEP       30

 LAYER ROW COL. STREAM  RCH.  FLOW INTO     FLOW TO   FLOW OUT OF   OVRLND.     DIRECT     STREAM       STREAM     STREAM     STREAM   STREAMBED  STREAMBED
                SEG.NO.  NO.  STRM. RCH.    AQUIFER    STRM. RCH.    RUNOFF     PRECIP       ET          HEAD       DEPTH      WIDTH   CONDCTNC.   GRADIENT

   1    1    1     1     1    1.3875E+01  1.7894E-01   1.3696E+01  0.000E+00  0.000E+00  0.000E+00  1.09404E+03  9.877E-01  9.972E+00  4.487E-02  1.329E+00
   1    2    2     1     2    1.3696E+01  2.7574E-01   1.3421E+01  0.000E+00  0.000E+00  0.000E+00  1.08904E+03  9.829E-01  9.890E+00  6.923E-02  1.328E+00
   1    3    3     1     3    1.3421E+01  2.3381E-01   1.3187E+01  0.000E+00  0.000E+00  0.000E+00  1.08340E+03  9.775E-01  9.797E+00  5.878E-02  1.326E+00
   1    3    4     1     4    1.3187E+01  2.1419E-01   1.2973E+01  0.000E+00  0.000E+00  0.000E+00  1.07838E+03  9.727E-01  9.715E+00  5.392E-02  1.324E+00
   1    4    5     2     1    1.0973E+01  2.9101E-01   1.0682E+01  0.000E+00  0.000E+00  0.000E+00  1.07266E+03  7.309E-01  1.200E+01  7.800E-02  1.244E+00
   1    5    6     2     2    1.0682E+01  2.2323E-01   1.0458E+01  0.000E+00  0.000E+00  0.000E+00  1.06723E+03  7.204E-01  1.200E+01  6.000E-02  1.240E+00
   1    6    6     2     3    1.0458E+01  2.2268E-01   1.0236E+01  0.000E+00  0.000E+00  0.000E+00  1.06250E+03  7.113E-01  1.200E+01  6.000E-02  1.237E+00
   1    7    6     2     4    1.0236E+01  2.2212E-01   1.0013E+01  0.000E+00  0.000E+00  0.000E+00  1.05778E+03  7.021E-01  1.200E+01  6.000E-02  1.234E+00
   1    8    6     2     5    1.0013E+01  2.2157E-01   9.7919E+00  0.000E+00  0.000E+00  0.000E+00  1.05305E+03  6.928E-01  1.200E+01  6.000E-02  1.231E+00
   1    3    5     3     1    2.0000E+00  2.8252E-01   1.7175E+00  0.000E+00  0.000E+00  0.000E+00  1.07555E+03  1.909E+00  9.636E+00  7.227E-02  1.955E+00
   1    3    6     3     2    1.7175E+00  2.4905E-01   1.4684E+00  0.000E+00  0.000E+00  0.000E+00  1.07264E+03  1.727E+00  8.909E+00  6.682E-02  1.864E+00
   1    3    7     3     3    1.4684E+00  1.9718E-01   1.2712E+00  0.000E+00  0.000E+00  0.000E+00  1.06987E+03  1.555E+00  8.218E+00  5.547E-02  1.777E+00
   1    4    8     3     4    1.2712E+00  2.2567E-01   1.0456E+00  0.000E+00  0.000E+00  0.000E+00  1.06682E+03  1.364E+00  7.455E+00  6.709E-02  1.682E+00
   1    5    8     3     5    1.0456E+00  1.5790E-01   8.8768E-01  0.000E+00  0.000E+00  0.000E+00  1.06362E+03  1.164E+00  6.655E+00  4.991E-02  1.582E+00
   1    6    8     3     6    8.8768E-01  5.5980E-02   8.3170E-01  0.000E+00  0.000E+00  0.000E+00  1.06158E+03  1.036E+00  6.145E+00  1.844E-02  1.518E+00
   1    5   10     4     1    1.0000E+01  9.0919E-02   9.9091E+00  0.000E+00  0.000E+00  0.000E+00  1.07836E+03  6.368E-01  1.000E+01  2.500E-02  1.212E+00
   1    5    9     4     2    9.9091E+00  1.8158E-01   9.7275E+00  0.000E+00  0.000E+00  0.000E+00  1.07154E+03  6.315E-01  1.000E+01  5.000E-02  1.211E+00
   1    6    8     4     3    9.7275E+00  1.2689E-01   9.6006E+00  0.000E+00  0.000E+00  0.000E+00  1.06381E+03  6.256E-01  1.000E+01  3.500E-02  1.209E+00
   1    6    8     5     1    1.0432E+01  2.2686E-01   1.0205E+01  0.000E+00  0.000E+00  0.000E+00  1.05868E+03  6.790E-01  1.542E+01  6.166E-02  1.226E+00
   1    7    7     5     2    1.0205E+01  2.7894E-01   9.9265E+00  0.000E+00  0.000E+00  0.000E+00  1.05417E+03  6.732E-01  1.519E+01  7.594E-02  1.224E+00
   1    8    7     5     3    9.9265E+00  1.9221E-01   9.7343E+00  0.000E+00  0.000E+00  0.000E+00  1.04992E+03  6.676E-01  1.497E+01  5.241E-02  1.223E+00
   1    8    6     5     4    9.7343E+00  1.3577E-01   9.5985E+00  0.000E+00  0.000E+00  0.000E+00  1.04691E+03  6.637E-01  1.482E+01  3.706E-02  1.221E+00
   1    9    6     6     1    9.5985E+00  2.2097E-01   9.3776E+00  0.000E+00  0.000E+00  0.000E+00  1.04341E+03  6.828E-01  1.200E+01  6.000E-02  1.228E+00
   1   10    7     6     2    9.3776E+00  2.2039E-01   9.1572E+00  0.000E+00  0.000E+00  0.000E+00  1.03885E+03  6.732E-01  1.200E+01  6.000E-02  1.224E+00
   1   11    7     6     3    9.1572E+00  2.1981E-01   8.9374E+00  0.000E+00  0.000E+00  0.000E+00  1.03430E+03  6.636E-01  1.200E+01  6.000E-02  1.221E+00
   1   12    7     6     4    8.9374E+00  2.1923E-01   8.7181E+00  0.000E+00  0.000E+00  0.000E+00  1.02974E+03  6.539E-01  1.200E+01  6.000E-02  1.218E+00
   1   13    7     6     5    8.7181E+00  1.8013E-03   8.7163E+00  0.000E+00  0.000E+00  0.000E+00  1.02656E+03  6.489E-01  1.200E+01  2.400E-02  2.502E-02
   1   14    9     7     1    1.5000E+02  1.3869E+00   1.4861E+02  0.000E+00  0.000E+00  0.000E+00  1.03987E+03  2.288E+00  5.529E+01  5.593E-01  8.266E-01
   1   13    8     7     2    1.4861E+02  2.0179E+00   1.4660E+02  0.000E+00  0.000E+00  0.000E+00  1.03478E+03  2.279E+00  5.525E+01  6.147E-01  1.094E+00
   1   13    7     7     3    1.4660E+02  1.7894E+00   1.4481E+02  0.000E+00  0.000E+00  0.000E+00  1.02969E+03  2.268E+00  5.521E+01  5.583E-01  1.068E+00
   1   13    6     8     1    1.5352E+02  1.1435E+00   1.5238E+02  0.000E+00  0.000E+00  0.000E+00  1.02471E+03  2.837E+00  4.114E+01  4.193E-01  9.091E-01
   1   13    5     8     2    1.5238E+02  4.0160E-01   1.5198E+02  0.000E+00  0.000E+00  0.000E+00  1.01846E+03  2.832E+00  4.107E+01  4.185E-01  3.199E-01
   1   13    4     8     3    1.5198E+02 -1.6734E+00   1.5365E+02  0.000E+00  0.000E+00  0.000E+00  1.01221E+03  2.837E+00  4.113E+01  4.191E+00 -1.331E-01
   1   13    3     8     4    1.5365E+02 -3.3133E+00   1.5696E+02  0.000E+00  0.000E+00  0.000E+00  1.00598E+03  2.854E+00  4.138E+01  4.217E+00 -2.619E-01
   1   13    2     8     5    1.5696E+02 -2.5556E+00   1.5952E+02  0.000E+00  0.000E+00  0.000E+00  9.99749E+02  2.874E+00  4.167E+01  4.246E+00 -2.006E-01
   1   13    1     8     6    1.5952E+02 -1.9977E+00   1.6152E+02  0.000E+00  0.000E+00  0.000E+00  9.94764E+02  2.889E+00  4.190E+01  2.562E+00 -2.600E-01
   1    8    6     9     1    9.7919E+00  0.0000E+00   9.7919E+00  0.000E+00  0.000E+00  0.000E+00  1.08099E+03  2.238E+00  4.000E+00  0.000E+00  1.746E+00
   1    8    5     9     2    9.7919E+00  0.0000E+00   9.7919E+00  0.000E+00  0.000E+00  0.000E+00  1.08049E+03  2.238E+00  4.000E+00  0.000E+00  1.746E+00





UNSATURATED ZONE PACKAGE VOLUMETRIC BUDGET FOR  TIME STEP    30 STRESS PERIOD   21
  ------------------------------------------------------------------------------



     CUMULATIVE VOLUMES      L**3       RATES FOR THIS TIME STEP      L**3/T
     ------------------                 ------------------------

           IN:                                      IN:
           ---                                      ---
        INFILTRATION =  6511089304.3993          INFILTRATION =         610.6396

          OUT:                                     OUT:
          ----                                     ----
              UZF ET =   823322207.9910                UZF ET =          49.5675
        UZF RECHARGE =  4871014266.9438          UZF RECHARGE =         131.8853

            IN - OUT =   816752829.4644              IN - OUT =         429.1868

          STORAGE:                                 STORAGE:
          --------                                 --------
      STORAGE CHANGE =   817394417.2803        STORAGE CHANGE =         429.1868

 PERCENT DISCREPANCY IS DIFFERENCE BETWEEN IN-OUT MINUS CHANGE IN STORAGE
 DIVIDED BY THE AVERAGE OF IN AND OUT TIMES 100

 PERCENT DISCREPANCY =          -0.00     PERCENT DISCREPANCY =           0.00






1
  VOLUMETRIC BUDGET FOR AGRICULTURAL FIELDS AT  END OF TIME STEP   30, STRESS PERIOD  21
  ------------------------------------------------------------------------------

     CUMULATIVE VOLUMES      L**3       RATES FOR THIS TIME STEP      L**3/T
     ------------------                 ------------------------

           IN:                                      IN:
           ---                                      ---
               AG WELLS  =  6181460992.0000                 AG WELLS  =         600.0000
      DIVERSION SEGMENTS =   285003008.0000        DIVERSION SEGMENTS =           9.7919
           GW IRRIGATION =           0.0000             GW IRRIGATION =           0.0000
           SW IRRIGATION =           0.0000             SW IRRIGATION =           0.0000
        SYSTEM LOSSES GW =           0.0000          SYSTEM LOSSES GW =           0.0000
        SYSTEM LOSSES SW =           0.0000          SYSTEM LOSSES SW =           0.0000

                TOTAL IN =  6466463744.0000                  TOTAL IN =         609.7919

          OUT:                                     OUT:
          ----                                     ----
               AG WELLS  =           0.0000                 AG WELLS  =           0.0000
      DIVERSION SEGMENTS =           0.0000        DIVERSION SEGMENTS =           0.0000
           GW IRRIGATION =  6181460992.0000             GW IRRIGATION =         600.0000
           SW IRRIGATION =   285008000.0000             SW IRRIGATION =           9.7921
        SYSTEM LOSSES GW =           0.0000          SYSTEM LOSSES GW =           0.0000
        SYSTEM LOSSES SW =           0.0000          SYSTEM LOSSES SW =           0.0000

               TOTAL OUT =  6466468864.0000                 TOTAL OUT =         609.7921

                IN - OUT =       -5120.0000                  IN - OUT =      -1.8311E-04

     PERCENT DISCREPANCY =          -0.00         PERCENT DISCREPANCY =          -0.00



1
  VOLUMETRIC BUDGET FOR ENTIRE MODEL AT END OF TIME STEP   30, STRESS PERIOD  21
  ------------------------------------------------------------------------------

     CUMULATIVE VOLUMES      L**3       RATES FOR THIS TIME STEP      L**3/T
     ------------------                 ------------------------

           IN:                                      IN:
           ---                                      ---
             STORAGE     =  5551775744.0000               STORAGE     =         466.3242
       CONSTANT HEAD     =           0.0000         CONSTANT HEAD     =           0.0000
     HEAD DEP BOUNDS     =    15185576.0000       HEAD DEP BOUNDS     =           0.2892
      STREAM LEAKAGE     =   634573888.0000        STREAM LEAKAGE     =          12.1061
        UZF RECHARGE     =  4871011840.0000          UZF RECHARGE     =         131.8854
               GW ET     =           0.0000                 GW ET     =           0.0000
     SURFACE LEAKAGE     =           0.0000       SURFACE LEAKAGE     =           0.0000
           AG WELLS      =           0.0000             AG WELLS      =           0.0000

                TOTAL IN = 11072546816.0000                  TOTAL IN =         610.6050

          OUT:                                     OUT:
          ----                                     ----
             STORAGE     =  4359133184.0000               STORAGE     =           0.7817
       CONSTANT HEAD     =           0.0000         CONSTANT HEAD     =           0.0000
     HEAD DEP BOUNDS     =    15180036.0000       HEAD DEP BOUNDS     =           0.2867
      STREAM LEAKAGE     =   516717120.0000        STREAM LEAKAGE     =           9.5399
        UZF RECHARGE     =           0.0000          UZF RECHARGE     =           0.0000
               GW ET     =           0.0000                 GW ET     =           0.0000
     SURFACE LEAKAGE     =           0.0000       SURFACE LEAKAGE     =           0.0000
           AG WELLS      =  6181460992.0000             AG WELLS      =         600.0000

               TOTAL OUT = 11072491520.0000                 TOTAL OUT =         610.6083

                IN - OUT =       55296.0000                  IN - OUT =      -3.2959E-03

     PERCENT DISCREPANCY =           0.00         PERCENT DISCREPANCY =          -0.00






         TIME SUMMARY AT END OF TIME STEP   30 IN STRESS PERIOD   21
                    SECONDS     MINUTES      HOURS       DAYS        YEARS
                    -----------------------------------------------------------
   TIME STEP LENGTH  87667.      1461.1      24.352      1.0147     2.77799E-03
 STRESS PERIOD TIME 2.63000E+06  43833.      730.56      30.440     8.33397E-02
         TOTAL TIME 5.26866E+07 8.78110E+05  14635.      609.80      1.6695    
1
1
                            STRESS PERIOD NO.   22, LENGTH =   2630000.    
                            -----------------------------------------------

                              NUMBER OF TIME STEPS =    30

                               MULTIPLIER FOR DELT =     1.000

                            INITIAL TIME STEP SIZE =   87666.66    

 REUSING NON-PARAMETER GHB CELLS FROM LAST STRESS PERIOD

      2 GHB CELLS

 REUSING STREAM SEGMENT DATA FROM LAST STRESS PERIOD



            AREAL INFILTRATION RATE
 READING ON UNIT   19 WITH FORMAT: (FREE)              

            1           2           3           4           5           6           7           8           9          10
 ........................................................................................................................
   1   1.0000E-10  2.0000E-10   0.000       0.000       0.000       0.000       0.000       0.000       0.000       0.000    
   2   2.0000E-10  1.0000E-10  2.0000E-10   0.000       0.000      8.0000E-10  8.0000E-10  5.0000E-10   0.000       0.000    
   3    0.000      5.0000E-10  1.0000E-10  1.0000E-10  8.0000E-10  8.0000E-10  5.0000E-10  5.0000E-10   0.000       0.000    
   4   8.0000E-10  5.0000E-10  1.0000E-10  1.0000E-10  1.0000E-10  1.0000E-10  1.0000E-10  1.0000E-10  2.0000E-10   0.000    
   5   8.0000E-10  5.0000E-10  1.0000E-10  1.0000E-10  1.0000E-10  1.0000E-10  1.0000E-10  1.0000E-10  1.0000E-10  1.0000E-10
   6   8.0000E-10  5.0000E-10  5.0000E-10  2.0000E-10  2.0000E-10  1.0000E-10  1.0000E-10  1.0000E-10  1.0000E-10  5.0000E-10
   7   8.0000E-10  5.0000E-10  5.0000E-10  2.0000E-10  2.0000E-10  1.0000E-10  1.0000E-10  2.0000E-10  2.0000E-10   0.000    
   8    0.000      5.0000E-10  5.0000E-10  2.0000E-10  2.0000E-10  1.0000E-10  1.0000E-10  2.0000E-10  5.0000E-10   0.000    
   9    0.000      5.0000E-10  5.0000E-10  2.0000E-10  2.0000E-10  1.0000E-10  1.0000E-10  2.0000E-10  5.0000E-10   0.000    
  10    0.000      5.0000E-10  5.0000E-10  2.0000E-10  2.0000E-10  1.0000E-10  1.0000E-10  2.0000E-10  5.0000E-10  8.0000E-10
  11    0.000      1.0000E-10  1.0000E-10  1.0000E-10  1.0000E-10  1.0000E-10  1.0000E-10  2.0000E-10  5.0000E-10   0.000    
  12   1.0000E-10  1.0000E-10  1.0000E-10  1.0000E-10  1.0000E-10  1.0000E-10  1.0000E-10  1.0000E-10  2.0000E-10   0.000    
  13   1.0000E-10  1.0000E-10  2.0000E-10  2.0000E-10  2.0000E-10  2.0000E-10  2.0000E-10  1.0000E-10  1.0000E-10   0.000    
  14    0.000      2.0000E-10  5.0000E-10  5.0000E-10  5.0000E-10  5.0000E-10  5.0000E-10  2.0000E-10  1.0000E-10   0.000    
  15    0.000       0.000      8.0000E-10  8.0000E-10  8.0000E-10  8.0000E-10   0.000       0.000       0.000       0.000    

                  ET RATE =  7.500000E-08

 USING ET EXTINCTION DEPTH FROM PREVIOUS STRESS PERIOD. CURRENT PERIOD IS:      22

 USING EXTINCTION WATER CONTENT FROM PREVIOUS STRESS PERIOD. CURRENT PERIOD IS:      22

 USING AIR ENTRY PRESSURE FROM PREVIOUS STRESS PERIOD. CURRENT PERIOD IS:      22

 USING ROOT PRESSURE HEAD FROM PREVIOUS STRESS PERIOD. CURRENT PERIOD IS:      22

 USING ROOT ACTIVITY FROM PREVIOUS STRESS PERIOD. CURRENT PERIOD IS:      22

 PROCESSING AG STRESS PERIOD DATA

 READING AG STRESS PERIOD DATA

 READING IRRIGATION SEGMENT

 READING IRRIGATION WELL

 READING SUPPLEMENTAL WELL

 END PROCESSING AG STRESS PERIOD DATA OPTIONS
 
 SOLVING FOR HEAD 
                                                   Max.-Head-Change                         Max.-Flux-Residual
  Residual-Control   Outer-Iter.   Inner-Iter.     Column Row Layer    Maximum-Head-Change  Column Row Layer    Maximum-Flux-Residual          L2-NORM 
          0                 1           2             4    8     1       0.1014979018E+01       4    8    1         0.5465135713E+02      0.8771131947E+02
          0                 2           2             5    6     1       0.3554537165E+00       5    6    1         0.1933225115E+02      0.3373001998E+02
          0                 3           2             5    6     1       0.2058852191E+00       5    6    1         0.1126925003E+02      0.1643610459E+02
          0                 4           2             5    6     1       0.1187673989E+00       5    6    1         0.6520256391E+01      0.9059829382E+01
          0                 5           2             5    6     1       0.6837940742E-01       5    6    1         0.3759371493E+01      0.5184224635E+01
          0                 6           2             5    6     1       0.3933245095E-01       5    6    1         0.2163902560E+01      0.2991866842E+01
          0                 7           2             5    6     1       0.2261446459E-01       5    6    1         0.1244552734E+01      0.1729851519E+01
          0                 8           2             5    6     1       0.1299970234E-01       5    6    1         0.7155254890E+00      0.1000531858E+01
          0                 9           2             5    6     1       0.7472082235E-02       5    6    1         0.4113026255E+00      0.5787480284E+00
          0                10           2             4    7     1       0.4052929163E-02       4    7    1         0.2203986495E+00      0.2687927798E+00
                                                   Max.-Head-Change                         Max.-Flux-Residual
  Residual-Control   Outer-Iter.   Inner-Iter.     Column Row Layer    Maximum-Head-Change  Column Row Layer    Maximum-Flux-Residual          L2-NORM 
          0                11           2             4    7     1       0.2362265940E-02       4    7    1         0.1285032092E+00      0.1424260823E+00
          0                12           2             4    7     1       0.1376432383E-02       4    7    1         0.7489432075E-01      0.8085154975E-01
          0                13           1             4    7     1       0.8018456417E-03       4    7    1         0.4363714605E-01      0.4674999898E-01
          0                14           1             4    7     1       0.4670573512E-03       4    7    1         0.2542025871E-01      0.2715106143E-01
          0                15           1             4    7     1       0.2720292456E-03       4    7    1         0.1480648020E-01      0.1578475856E-01
          0                16           1             4    7     1       0.1584311867E-03       4    7    1         0.8623680849E-02      0.9179016713E-02
          0                17           1             4    7     1       0.9226850776E-04       4    7    1         0.5022443389E-02      0.5338084711E-02

    ------------------------------------------------
       NWT REQUIRED           17 OUTER ITERATIONS 
       AND A TOTAL OF         29 INNER ITERATIONS.
    ------------------------------------------------

 NO OUTPUT CONTROL FOR STRESS PERIOD   22   TIME STEP    1
 
 SOLVING FOR HEAD 
                                                   Max.-Head-Change                         Max.-Flux-Residual
  Residual-Control   Outer-Iter.   Inner-Iter.     Column Row Layer    Maximum-Head-Change  Column Row Layer    Maximum-Flux-Residual          L2-NORM 
          0                 1           2             4    6     1       0.1629769075E+01       4    6    1         0.8847495076E+02      0.1251181059E+03
          0                 2           2             4    6     1       0.4653707680E+00       4    6    1         0.2520795411E+02      0.4012833064E+02
          0                 3           2             4    8     1       0.2065131628E+00       4    8    1         0.1107788468E+02      0.1591753914E+02
          0                 4           2             4    8     1       0.1216915789E+00       4    8    1         0.6562892984E+01      0.7932122490E+01
          0                 5           2             4    8     1       0.7146158162E-01       4    8    1         0.3863819763E+01      0.4426144713E+01
          0                 6           2             4    8     1       0.4189489762E-01       4    8    1         0.2267994353E+01      0.2554955068E+01
          0                 7           2             4    8     1       0.2454132977E-01       4    8    1         0.1329352006E+01      0.1487053329E+01
          0                 8           2             4    8     1       0.1437019894E-01       4    8    1         0.7786332873E+00      0.8671218960E+00
          0                 9           2             4    8     1       0.8412822713E-02       4    8    1         0.4559067694E+00      0.5058448445E+00
          0                10           2             4    8     1       0.4924665132E-02       4    8    1         0.2668972193E+00      0.2951272191E+00
                                                   Max.-Head-Change                         Max.-Flux-Residual
  Residual-Control   Outer-Iter.   Inner-Iter.     Column Row Layer    Maximum-Head-Change  Column Row Layer    Maximum-Flux-Residual          L2-NORM 
          0                11           2             4    8     1       0.2882627010E-02       4    8    1         0.1562332894E+00      0.1722007968E+00
          0                12           2             4    8     1       0.1687279218E-02       4    8    1         0.9144972536E-01      0.1004834046E+00
          0                13           2             4    8     1       0.9875909697E-03       4    8    1         0.5352777824E-01      0.5863924017E-01
          0                14           2             4    8     1       0.5780445691E-03       4    8    1         0.3133056836E-01      0.3422298496E-01
          0                15           2             4    8     1       0.3383302397E-03       4    8    1         0.1833798805E-01      0.1997482354E-01
          0                16           2             4    8     1       0.1980232630E-03       4    8    1         0.1073323210E-01      0.1165958242E-01
          0                17           2             4    8     1       0.1159011794E-03       4    8    1         0.6282107103E-02      0.6806396391E-02
          0                18           1             4    8     1       0.6783533114E-04       4    8    1         0.3676854473E-02      0.3973605730E-02

    ------------------------------------------------
       NWT REQUIRED           18 OUTER ITERATIONS 
       AND A TOTAL OF         35 INNER ITERATIONS.
    ------------------------------------------------

 NO OUTPUT CONTROL FOR STRESS PERIOD   22   TIME STEP    2
 
 SOLVING FOR HEAD 
                                                   Max.-Head-Change                         Max.-Flux-Residual
  Residual-Control   Outer-Iter.   Inner-Iter.     Column Row Layer    Maximum-Head-Change  Column Row Layer    Maximum-Flux-Residual          L2-NORM 
          0                 1           2             5    6     1       0.1624794764E+01       5    6    1         0.8800219493E+02      0.1488915686E+03
          0                 2           2             4    7     1       0.5891242162E+00       4    7    1         0.3140085554E+02      0.5639217266E+02
          0                 3           2             5    8     1       0.2868199593E+00       5    8    1         0.1568682365E+02      0.2387267501E+02
          0                 4           2             5    8     1       0.1654204614E+00       5    8    1         0.9084463524E+01      0.1223717242E+02
          0                 5           2             5    8     1       0.9514085294E-01       5    8    1         0.5235771074E+01      0.6828236616E+01
          0                 6           2             5    8     1       0.5464212904E-01       5    8    1         0.3010290361E+01      0.3906588970E+01
          0                 7           2             5    8     1       0.3135961659E-01       5    8    1         0.1728589536E+01      0.2249109134E+01
          0                 8           2             5    8     1       0.1799080221E-01       5    8    1         0.9919633895E+00      0.1296733942E+01
          0                 9           2             5    8     1       0.1031920804E-01       5    8    1         0.5690563586E+00      0.7478822041E+00
          0                10           2             5    8     1       0.5918329878E-02       5    8    1         0.3263930046E+00      0.4313777040E+00
                                                   Max.-Head-Change                         Max.-Flux-Residual
  Residual-Control   Outer-Iter.   Inner-Iter.     Column Row Layer    Maximum-Head-Change  Column Row Layer    Maximum-Flux-Residual          L2-NORM 
          0                11           2             5    8     1       0.3394141877E-02       5    8    1         0.1871924881E+00      0.2488344810E+00
          0                12           2             5    8     1       0.1946478792E-02       5    8    1         0.1073535967E+00      0.1435469756E+00
          0                13           2             5    8     1       0.1116255966E-02       5    8    1         0.6156515285E-01      0.8281550290E-01
          0                14           2             5    8     1       0.6401403561E-03       5    8    1         0.3530599300E-01      0.4778215571E-01
          0                15           2             5    8     1       0.3671008505E-03       5    8    1         0.2024694669E-01      0.2757133076E-01
          0                16           2             5    8     1       0.2105208431E-03       5    8    1         0.1161099910E-01      0.1591066698E-01
          0                17           2             5    8     1       0.1207270886E-03       5    8    1         0.6658543770E-02      0.9182440989E-02
          0                18           1             5    8     1       0.6923321052E-04       5    8    1         0.3818465651E-02      0.5299894672E-02

    ------------------------------------------------
       NWT REQUIRED           18 OUTER ITERATIONS 
       AND A TOTAL OF         35 INNER ITERATIONS.
    ------------------------------------------------

 NO OUTPUT CONTROL FOR STRESS PERIOD   22   TIME STEP    3
 
 SOLVING FOR HEAD 
                                                   Max.-Head-Change                         Max.-Flux-Residual
  Residual-Control   Outer-Iter.   Inner-Iter.     Column Row Layer    Maximum-Head-Change  Column Row Layer    Maximum-Flux-Residual          L2-NORM 
          0                 1           2             4    8     1       0.1269728404E+01       4    8    1         0.6872092056E+02      0.9564720157E+02
          0                 2           2             4    8     1       0.6705380978E+00       4    8    1         0.3626099259E+02      0.5101475184E+02
          0                 3           2             5    7     1       0.3369927100E+00       5    7    1         0.1839197834E+02      0.2399506866E+02
          0                 4           2             5    7     1       0.1960464848E+00       5    7    1         0.1069746235E+02      0.1296288238E+02
          0                 5           2             5    7     1       0.6802222168E-01       5    7    1         0.3675079655E+01      0.5461860465E+01
          0                 6           2             5    6     1       0.2187812212E-01       5    6    1         0.1208584064E+01      0.1797072076E+01
          0                 7           2             5    6     1       0.1278058156E-01       5    6    1         0.7058768925E+00      0.9638296669E+00
          0                 8           2             5    6     1       0.7315293228E-02       5    6    1         0.4041513804E+00      0.5435843137E+00
          0                 9           2             5    6     1       0.4186283534E-02       5    6    1         0.2312980238E+00      0.3118477294E+00
          0                10           2             5    6     1       0.2395561222E-02       5    6    1         0.1323552020E+00      0.1797217445E+00
                                                   Max.-Head-Change                         Max.-Flux-Residual
  Residual-Control   Outer-Iter.   Inner-Iter.     Column Row Layer    Maximum-Head-Change  Column Row Layer    Maximum-Flux-Residual          L2-NORM 
          0                11           2             5    6     1       0.1370861023E-02       5    6    1         0.7573630153E-01      0.1037127241E+00
          0                12           2             5    6     1       0.7845077707E-03       5    6    1         0.4333955195E-01      0.5987961436E-01
          0                13           2             5    6     1       0.4489725262E-03       5    6    1         0.2480199471E-01      0.3458160519E-01
          0                14           2             4    7     1       0.2580419053E-03       5    6    1         0.1419414569E-01      0.1997575062E-01
          0                15           2             4    7     1       0.1504966293E-03       4    7    1         0.8180857156E-02      0.1154102060E-01
          0                16           1             4    7     1       0.8777258255E-04       4    7    1         0.4771275485E-02      0.6669067995E-02

    ------------------------------------------------
       NWT REQUIRED           16 OUTER ITERATIONS 
       AND A TOTAL OF         31 INNER ITERATIONS.
    ------------------------------------------------

 NO OUTPUT CONTROL FOR STRESS PERIOD   22   TIME STEP    4
 
 SOLVING FOR HEAD 
                                                   Max.-Head-Change                         Max.-Flux-Residual
  Residual-Control   Outer-Iter.   Inner-Iter.     Column Row Layer    Maximum-Head-Change  Column Row Layer    Maximum-Flux-Residual          L2-NORM 
          0                 1           2             5    8     1       0.1440020442E+01       5    8    1         0.7923835592E+02      0.1280700578E+03
          0                 2           2             4    6     1       0.6347714644E+00       4    6    1         0.3419417694E+02      0.4713493905E+02
          0                 3           2             4    6     1       0.1857414096E+00       4    6    1         0.9998766118E+01      0.1381156828E+02
          0                 4           2             4    6     1       0.4988685074E-01       4    6    1         0.2688067293E+01      0.3619824114E+01
          0                 5           2             4    6     1       0.1436110167E-01       4    6    1         0.7735297112E+00      0.1065521636E+01
          0                 6           2             4    6     1       0.4136554813E-02       4    6    1         0.2227107558E+00      0.3377774256E+00
          0                 7           2             4    8     1       0.1761984186E-02       4    8    1         0.9473054286E-01      0.1284242257E+00
          0                 8           2             4    8     1       0.1035151561E-02       4    8    1         0.5597338362E-01      0.6149934190E-01
          0                 9           2             4    8     1       0.6058732160E-03       4    8    1         0.3285192391E-01      0.3373023233E-01
          0                10           2             4    8     1       0.3539723919E-03       4    8    1         0.1921912564E-01      0.1936725952E-01
                                                   Max.-Head-Change                         Max.-Flux-Residual
  Residual-Control   Outer-Iter.   Inner-Iter.     Column Row Layer    Maximum-Head-Change  Column Row Layer    Maximum-Flux-Residual          L2-NORM 
          0                11           2             4    8     1       0.2066190701E-03       4    8    1         0.1122590018E-01      0.1125482313E-01
          0                12           2             4    8     1       0.1205539840E-03       4    8    1         0.6551988474E-02      0.6559188977E-02
          0                13           1             4    8     1       0.7032330512E-04       4    8    1         0.3822611572E-02      0.3825017102E-02

    ------------------------------------------------
       NWT REQUIRED           13 OUTER ITERATIONS 
       AND A TOTAL OF         25 INNER ITERATIONS.
    ------------------------------------------------

 NO OUTPUT CONTROL FOR STRESS PERIOD   22   TIME STEP    5
 
 SOLVING FOR HEAD 
                                                   Max.-Head-Change                         Max.-Flux-Residual
  Residual-Control   Outer-Iter.   Inner-Iter.     Column Row Layer    Maximum-Head-Change  Column Row Layer    Maximum-Flux-Residual          L2-NORM 
          0                 1           2             5    7     1       0.1554384941E+01       5    7    1         0.8410560393E+02      0.1396945173E+03
          0                 2           2             4    7     1       0.5946261299E+00       4    7    1         0.3177118849E+02      0.5514928346E+02
          0                 3           2             4    7     1       0.3534295075E+00       4    7    1         0.1907100027E+02      0.2820109920E+02
          0                 4           2             4    7     1       0.1330825966E+00       4    7    1         0.7332808302E+01      0.8429208880E+01
          0                 5           2             4    7     1       0.3701583773E-01       4    7    1         0.2050276707E+01      0.2793747626E+01
          0                 6           2             4    6     1      -0.1549318196E-01       4    6    1        -0.9041720062E+00      0.1185770447E+01
          0                 7           2             4    6     1      -0.8816397693E-02       4    6    1        -0.5113183472E+00      0.6048151617E+00
          0                 8           2             5    8     1      -0.2881644135E-02       5    8    1        -0.1630625851E+00      0.1701389650E+00
          0                 9           1             5    8     1      -0.1689089553E-02       5    8    1        -0.9561113015E-01      0.9644105489E-01
          0                10           1             5    8     1      -0.9898913503E-03       5    8    1        -0.5603977243E-01      0.5616674086E-01
                                                   Max.-Head-Change                         Max.-Flux-Residual
  Residual-Control   Outer-Iter.   Inner-Iter.     Column Row Layer    Maximum-Head-Change  Column Row Layer    Maximum-Flux-Residual          L2-NORM 
          0                11           1             5    8     1      -0.5800852038E-03       5    8    1        -0.3284107960E-01      0.3286640006E-01
          0                12           1             5    8     1      -0.3399256918E-03       5    8    1        -0.1924474857E-01      0.1925291711E-01
          0                13           1             5    8     1      -0.1991915986E-03       5    8    1        -0.1127708117E-01      0.1128098813E-01
          0                14           1             5    8     1      -0.1167226514E-03       5    8    1        -0.6608100220E-02      0.6610286444E-02
          0                15           1             5    8     1      -0.6839698156E-04       5    8    1        -0.3872164831E-02      0.3873439268E-02

    ------------------------------------------------
       NWT REQUIRED           15 OUTER ITERATIONS 
       AND A TOTAL OF         23 INNER ITERATIONS.
    ------------------------------------------------

 NO OUTPUT CONTROL FOR STRESS PERIOD   22   TIME STEP    6
 
 SOLVING FOR HEAD 
                                                   Max.-Head-Change                         Max.-Flux-Residual
  Residual-Control   Outer-Iter.   Inner-Iter.     Column Row Layer    Maximum-Head-Change  Column Row Layer    Maximum-Flux-Residual          L2-NORM 
          0                 1           2             4    6     1       0.1494622736E+01       4    6    1         0.8161169199E+02      0.1110195613E+03
          0                 2           2             4    6     1       0.4233657411E+00       4    6    1         0.2307685134E+02      0.3705904919E+02
          0                 3           2             4    8     1       0.2192657199E+00       4    8    1         0.1182682262E+02      0.1586973483E+02
          0                 4           2             4    8     1       0.1286401261E+00       4    8    1         0.6961351769E+01      0.8294241999E+01
          0                 5           2             4    8     1       0.7531342048E-01       4    8    1         0.4081936905E+01      0.4691861728E+01
          0                 6           2             4    8     1       0.4404791981E-01       4    8    1         0.2389188639E+01      0.2712106732E+01
          0                 7           2             4    8     1       0.2574902686E-01       4    8    1         0.1397169474E+01      0.1575808990E+01
          0                 8           2             4    8     1       0.1504831313E-01       4    8    1         0.8166911484E+00      0.9166907256E+00
          0                 9           2             4    8     1       0.8793453831E-02       4    8    1         0.4772781906E+00      0.5334373728E+00
          0                10           2             4    8     1       0.5138089923E-02       4    8    1         0.2788922740E+00      0.3104612816E+00
                                                   Max.-Head-Change                         Max.-Flux-Residual
  Residual-Control   Outer-Iter.   Inner-Iter.     Column Row Layer    Maximum-Head-Change  Column Row Layer    Maximum-Flux-Residual          L2-NORM 
          0                11           2             4    8     1       0.3002113541E-02       4    8    1         0.1629577665E+00      0.1807097689E+00
          0                12           2             4    8     1       0.1754049917E-02       4    8    1         0.9521346461E-01      0.1051973358E+00
          0                13           2             4    8     1       0.1024824017E-02       4    8    1         0.5563035605E-01      0.6124586475E-01
          0                14           2             4    8     1       0.5987571522E-03       4    8    1         0.3250260641E-01      0.3566130639E-01
          0                15           2             4    8     1       0.3498219213E-03       4    8    1         0.1898973022E-01      0.2076659211E-01
          0                16           2             4    8     1       0.2043801263E-03       4    8    1         0.1109466987E-01      0.1209426570E-01
          0                17           2             4    8     1       0.1194059341E-03       4    8    1         0.6481945303E-02      0.7044314103E-02
          0                18           1             4    8     1       0.6976039620E-04       4    8    1         0.3786970977E-02      0.4103377570E-02

    ------------------------------------------------
       NWT REQUIRED           18 OUTER ITERATIONS 
       AND A TOTAL OF         35 INNER ITERATIONS.
    ------------------------------------------------

 NO OUTPUT CONTROL FOR STRESS PERIOD   22   TIME STEP    7
 
 SOLVING FOR HEAD 
                                                   Max.-Head-Change                         Max.-Flux-Residual
  Residual-Control   Outer-Iter.   Inner-Iter.     Column Row Layer    Maximum-Head-Change  Column Row Layer    Maximum-Flux-Residual          L2-NORM 
          0                 1           2             4    7     1       0.1591830157E+01       4    7    1         0.8539017296E+02      0.1287040559E+03
          0                 2           2             4    7     1       0.4472693847E+00       4    7    1         0.2390794933E+02      0.3859250155E+02
          0                 3           2             4    6     1       0.1963980869E+00       4    6    1         0.1052224248E+02      0.1478446398E+02
          0                 4           2             4    6     1       0.1154045109E+00       4    6    1         0.6242468253E+01      0.6952186997E+01
          0                 5           2             4    6     1       0.6739653721E-01       4    6    1         0.3662207788E+01      0.3777255964E+01
          0                 6           2             4    6     1       0.3938897100E-01       4    6    1         0.2141950992E+01      0.2161496116E+01
          0                 7           2             4    6     1       0.2294178149E-01       4    6    1         0.1248834713E+01      0.1252720908E+01
          0                 8           2             4    6     1       0.1335328042E-01       4    6    1         0.7272485661E+00      0.7282076330E+00
          0                 9           2             4    6     1       0.7769726790E-02       4    6    1         0.4232600510E+00      0.4235654920E+00
          0                10           2             4    6     1       0.4520154230E-02       4    6    1         0.2462675831E+00      0.2463901330E+00
                                                   Max.-Head-Change                         Max.-Flux-Residual
  Residual-Control   Outer-Iter.   Inner-Iter.     Column Row Layer    Maximum-Head-Change  Column Row Layer    Maximum-Flux-Residual          L2-NORM 
          0                11           2             4    6     1       0.2629457741E-02       4    6    1         0.1432669576E+00      0.1433249101E+00
          0                12           2             4    6     1       0.1529544511E-02       4    6    1         0.8334023381E-01      0.8337047553E-01
          0                13           2             4    6     1       0.8897124281E-03       4    6    1         0.4847843050E-01      0.4849507796E-01
          0                14           2             4    6     1       0.5175270531E-03       4    6    1         0.2819908827E-01      0.2820850845E-01
          0                15           2             4    6     1       0.3010332128E-03       4    6    1         0.1640279918E-01      0.1640820420E-01
          0                16           2             4    6     1       0.1751034738E-03       4    6    1         0.9541113940E-02      0.9544236702E-02
          0                17           1             4    6     1       0.1018531839E-03       4    6    1         0.5549825286E-02      0.5551635656E-02
          0                18           1             4    6     1       0.5924534202E-04       4    6    1         0.3228190106E-02      0.3229241399E-02

    ------------------------------------------------
       NWT REQUIRED           18 OUTER ITERATIONS 
       AND A TOTAL OF         34 INNER ITERATIONS.
    ------------------------------------------------

 NO OUTPUT CONTROL FOR STRESS PERIOD   22   TIME STEP    8
 
 SOLVING FOR HEAD 
                                                   Max.-Head-Change                         Max.-Flux-Residual
  Residual-Control   Outer-Iter.   Inner-Iter.     Column Row Layer    Maximum-Head-Change  Column Row Layer    Maximum-Flux-Residual          L2-NORM 
          0                 1           2             4    6     1       0.3668910359E+00       4    6    1         0.2002393064E+02      0.3094941929E+02
          0                 2           2             4    7     1      -0.1919357584E+01       4    8    1        -0.1008809983E+03      0.2434365793E+03
          0                 3           2             4    6     1      -0.5183762998E+00       4    6    1        -0.2932480670E+02      0.3670970504E+02
          0                 4           2             4    6     1       0.3527165072E-01       4    6    1         0.2050820825E+01      0.2568044909E+01
          0                 5           2             4    6     1      -0.1403981854E-02       4    6    1        -0.8390861977E-01      0.1050658746E+00
          0                 6           1             4    6     1       0.1732430979E-04       4    6    1         0.1064147022E-02      0.1332243122E-02

    ------------------------------------------------
       NWT REQUIRED            6 OUTER ITERATIONS 
       AND A TOTAL OF         11 INNER ITERATIONS.
    ------------------------------------------------

 NO OUTPUT CONTROL FOR STRESS PERIOD   22   TIME STEP    9
 
 SOLVING FOR HEAD 
                                                   Max.-Head-Change                         Max.-Flux-Residual
  Residual-Control   Outer-Iter.   Inner-Iter.     Column Row Layer    Maximum-Head-Change  Column Row Layer    Maximum-Flux-Residual          L2-NORM 
          0                 1           2             5    6     1      -0.1344869925E+00       5    6    1        -0.7448282549E+01      0.1857292030E+02
          0                 2           2             5    6     1       0.1307980157E-01       5    6    1         0.7446808315E+00      0.1857146053E+01
          0                 3           2             5    6     1      -0.8907066746E-03       5    6    1        -0.5212907511E-01      0.1300017992E+00
          0                 4           1             5    6     1       0.3544191734E-04       5    6    1         0.2132075680E-02      0.5317068803E-02

    ------------------------------------------------
       NWT REQUIRED            4 OUTER ITERATIONS 
       AND A TOTAL OF          7 INNER ITERATIONS.
    ------------------------------------------------

 NO OUTPUT CONTROL FOR STRESS PERIOD   22   TIME STEP   10
 
 SOLVING FOR HEAD 
                                                   Max.-Head-Change                         Max.-Flux-Residual
  Residual-Control   Outer-Iter.   Inner-Iter.     Column Row Layer    Maximum-Head-Change  Column Row Layer    Maximum-Flux-Residual          L2-NORM 
          0                 1           2             5    6     1      -0.1262632583E+00       5    6    1        -0.6989656604E+01      0.1770988832E+02
          0                 2           2             5    6     1       0.1228011656E-01       5    6    1         0.6988364363E+00      0.1770839876E+01
          0                 3           2             5    6     1      -0.8362485483E-03       5    6    1        -0.4891979394E-01      0.1239602004E+00
          0                 4           1             5    6     1       0.3327499082E-04       5    6    1         0.2000816690E-02      0.5069967617E-02

    ------------------------------------------------
       NWT REQUIRED            4 OUTER ITERATIONS 
       AND A TOTAL OF          7 INNER ITERATIONS.
    ------------------------------------------------

 NO OUTPUT CONTROL FOR STRESS PERIOD   22   TIME STEP   11
 
 SOLVING FOR HEAD 
                                                   Max.-Head-Change                         Max.-Flux-Residual
  Residual-Control   Outer-Iter.   Inner-Iter.     Column Row Layer    Maximum-Head-Change  Column Row Layer    Maximum-Flux-Residual          L2-NORM 
          0                 1           2             5    6     1      -0.1185949810E+00       5    6    1        -0.6562239812E+01      0.1689941828E+02
          0                 2           2             5    6     1       0.1153442900E-01       5    6    1         0.6561106157E+00      0.1689809337E+01
          0                 3           2             5    6     1      -0.7854677738E-03       5    6    1        -0.4592883521E-01      0.1182879191E+00
          0                 4           1             5    6     1       0.3125438815E-04       5    6    1         0.1878487003E-02      0.4837974874E-02

    ------------------------------------------------
       NWT REQUIRED            4 OUTER ITERATIONS 
       AND A TOTAL OF          7 INNER ITERATIONS.
    ------------------------------------------------

 NO OUTPUT CONTROL FOR STRESS PERIOD   22   TIME STEP   12
 
 SOLVING FOR HEAD 
                                                   Max.-Head-Change                         Max.-Flux-Residual
  Residual-Control   Outer-Iter.   Inner-Iter.     Column Row Layer    Maximum-Head-Change  Column Row Layer    Maximum-Flux-Residual          L2-NORM 
          0                 1           2             5    6     1      -0.1114406396E+00       5    6    1        -0.6163683162E+01      0.1613772954E+02
          0                 2           2             4    7     1      -0.1909086838E+01       4    7    1        -0.9974597894E+02      0.2439573856E+03
          0                 3           2             4    7     1       0.1856419602E+00       4    7    1         0.9971075956E+01      0.2437382415E+02
          0                 4           2             4    7     1      -0.1264211981E-01       4    7    1        -0.6980258408E+00      0.1706642906E+01
          0                 5           2             4    7     1       0.5030389387E-03       4    7    1         0.2854971199E-01      0.6981293701E-01
          0                 6           1             4    7     1      -0.6202693054E-05       4    7    1        -0.3618202829E-03      0.8849496765E-03

    ------------------------------------------------
       NWT REQUIRED            6 OUTER ITERATIONS 
       AND A TOTAL OF         11 INNER ITERATIONS.
    ------------------------------------------------

 NO OUTPUT CONTROL FOR STRESS PERIOD   22   TIME STEP   13
 
 SOLVING FOR HEAD 
                                                   Max.-Head-Change                         Max.-Flux-Residual
  Residual-Control   Outer-Iter.   Inner-Iter.     Column Row Layer    Maximum-Head-Change  Column Row Layer    Maximum-Flux-Residual          L2-NORM 
          0                 1           2             3    7     1       0.6533751617E-01       4    5    1         0.3512512336E+01      0.9635220197E+01
          0                 2           2             5    8     1      -0.5171457695E-01       5    8    1        -0.2847135417E+01      0.6514342449E+01
          0                 3           2             4    7     1       0.4887198445E-02       4    8    1         0.2655537623E+00      0.6164442841E+00
          0                 4           2             4    7     1      -0.3328004978E-03       4    8    1        -0.1867188053E-01      0.4159839449E-01
          0                 5           1             4    7     1       0.1324244090E-04       4    8    1         0.7669746462E-03      0.1675003063E-02

    ------------------------------------------------
       NWT REQUIRED            5 OUTER ITERATIONS 
       AND A TOTAL OF          9 INNER ITERATIONS.
    ------------------------------------------------

 NO OUTPUT CONTROL FOR STRESS PERIOD   22   TIME STEP   14
 
 SOLVING FOR HEAD 
                                                   Max.-Head-Change                         Max.-Flux-Residual
  Residual-Control   Outer-Iter.   Inner-Iter.     Column Row Layer    Maximum-Head-Change  Column Row Layer    Maximum-Flux-Residual          L2-NORM 
          0                 1           2             3    7     1       0.6338474044E-01       4    5    1         0.3314534714E+01      0.9110416510E+01
          0                 2           2             3    7     1      -0.6165586025E-02       4    5    1        -0.3314453208E+00      0.9110169447E+00
          0                 3           2             3    7     1       0.4198537547E-03       4    5    1         0.2320125959E-01      0.6377133314E-01
          0                 4           1             3    7     1      -0.1670638863E-04       4    5    1        -0.9489324809E-03      0.2608233952E-02

    ------------------------------------------------
       NWT REQUIRED            4 OUTER ITERATIONS 
       AND A TOTAL OF          7 INNER ITERATIONS.
    ------------------------------------------------

 NO OUTPUT CONTROL FOR STRESS PERIOD   22   TIME STEP   15
 
 SOLVING FOR HEAD 
                                                   Max.-Head-Change                         Max.-Flux-Residual
  Residual-Control   Outer-Iter.   Inner-Iter.     Column Row Layer    Maximum-Head-Change  Column Row Layer    Maximum-Flux-Residual          L2-NORM 
          0                 1           2             3    7     1       0.6198757097E-01       4    5    1         0.3166078896E+01      0.8759245271E+01
          0                 2           2             3    7     1      -0.6029679607E-02       4    5    1        -0.3166005454E+00      0.8759546357E+00
          0                 3           2             3    7     1       0.4105990307E-03       4    5    1         0.2216211725E-01      0.6131696920E-01
          0                 4           1             3    7     1      -0.1633813297E-04       4    5    1        -0.9064315334E-03      0.2507855730E-02

    ------------------------------------------------
       NWT REQUIRED            4 OUTER ITERATIONS 
       AND A TOTAL OF          7 INNER ITERATIONS.
    ------------------------------------------------

 NO OUTPUT CONTROL FOR STRESS PERIOD   22   TIME STEP   16
 
 SOLVING FOR HEAD 
                                                   Max.-Head-Change                         Max.-Flux-Residual
  Residual-Control   Outer-Iter.   Inner-Iter.     Column Row Layer    Maximum-Head-Change  Column Row Layer    Maximum-Flux-Residual          L2-NORM 
          0                 1           2             3    7     1       0.6061862242E-01       4    5    1         0.3024941488E+01      0.8426616084E+01
          0                 2           2             3    7     1      -0.5896518463E-02       4    5    1        -0.3024875295E+00      0.8426421234E+00
          0                 3           2             3    7     1       0.4015312374E-03       4    5    1         0.2117419886E-01      0.5898516154E-01
          0                 4           1             3    7     1      -0.1597732077E-04       4    5    1        -0.8660256567E-03      0.2412461071E-02

    ------------------------------------------------
       NWT REQUIRED            4 OUTER ITERATIONS 
       AND A TOTAL OF          7 INNER ITERATIONS.
    ------------------------------------------------

 NO OUTPUT CONTROL FOR STRESS PERIOD   22   TIME STEP   17
 
 SOLVING FOR HEAD 
                                                   Max.-Head-Change                         Max.-Flux-Residual
  Residual-Control   Outer-Iter.   Inner-Iter.     Column Row Layer    Maximum-Head-Change  Column Row Layer    Maximum-Flux-Residual          L2-NORM 
          0                 1           2             3    7     1       0.5927764289E-01       4    5    1         0.2890761073E+01      0.8111374890E+01
          0                 2           2             5    8     1      -0.1037586384E-01       5    8    1        -0.5709563962E+00      0.1206342194E+01
          0                 3           2             4    8     1       0.7106595232E-02       4    8    1         0.3858015243E+00      0.9399637085E+00
          0                 4           2             4    7     1      -0.8205322915E-03       4    8    1        -0.4579763718E-01      0.1072278738E+00
          0                 5           2             4    7     1      -0.2552302980E+00       5    8    1        -0.1409214568E+02      0.3451556922E+02
          0                 6           2             4    7     1       0.1015703374E-01       5    7    1         0.5827430246E+00      0.1304137757E+01
          0                 7           2             4    7     1      -0.1253547640E-03       5    7    1        -0.7469616162E-02      0.1672465152E-01
          0                 8           1             4    7     1      -0.1842442647E-05       5    7    1        -0.1097856434E-03      0.2458112016E-03

    ------------------------------------------------
       NWT REQUIRED            8 OUTER ITERATIONS 
       AND A TOTAL OF         15 INNER ITERATIONS.
    ------------------------------------------------

 NO OUTPUT CONTROL FOR STRESS PERIOD   22   TIME STEP   18
 
 SOLVING FOR HEAD 
                                                   Max.-Head-Change                         Max.-Flux-Residual
  Residual-Control   Outer-Iter.   Inner-Iter.     Column Row Layer    Maximum-Head-Change  Column Row Layer    Maximum-Flux-Residual          L2-NORM 
          0                 1           2             3    7     1       0.5535050200E-01       4    5    1         0.2562169199E+01      0.7123029697E+01
          0                 2           2             5    8     1      -0.5259912614E-01       5    8    1        -0.2893757125E+01      0.6669526339E+01
          0                 3           2             4    8     1       0.5006816362E-02       4    8    1         0.2726735208E+00      0.6328221130E+00
          0                 4           2             4    8     1      -0.3409468972E-03       4    8    1        -0.1916927399E-01      0.4278519364E-01
          0                 5           1             4    8     1       0.1356657057E-04       4    8    1         0.7872785225E-03      0.1724186114E-02

    ------------------------------------------------
       NWT REQUIRED            5 OUTER ITERATIONS 
       AND A TOTAL OF          9 INNER ITERATIONS.
    ------------------------------------------------

 NO OUTPUT CONTROL FOR STRESS PERIOD   22   TIME STEP   19
 
 SOLVING FOR HEAD 
                                                   Max.-Head-Change                         Max.-Flux-Residual
  Residual-Control   Outer-Iter.   Inner-Iter.     Column Row Layer    Maximum-Head-Change  Column Row Layer    Maximum-Flux-Residual          L2-NORM 
          0                 1           2             3    7     1       0.5360283729E-01       4    5    1         0.2411044801E+01      0.6746094877E+01
          0                 2           2             3    7     1      -0.5214078064E-02       4    5    1        -0.2411010709E+00      0.6745990130E+00
          0                 3           2             3    7     1       0.3550595459E-03       4    5    1         0.1687711451E-01      0.4722191080E-01
          0                 4           1             3    7     1      -0.1412815541E-04       4    5    1        -0.6902748057E-03      0.1931382045E-02

    ------------------------------------------------
       NWT REQUIRED            4 OUTER ITERATIONS 
       AND A TOTAL OF          7 INNER ITERATIONS.
    ------------------------------------------------

 NO OUTPUT CONTROL FOR STRESS PERIOD   22   TIME STEP   20
 
 SOLVING FOR HEAD 
                                                   Max.-Head-Change                         Max.-Flux-Residual
  Residual-Control   Outer-Iter.   Inner-Iter.     Column Row Layer    Maximum-Head-Change  Column Row Layer    Maximum-Flux-Residual          L2-NORM 
          0                 1           2             3    7     1       0.5241022168E-01       4    5    1         0.2307104926E+01      0.6515702715E+01
          0                 2           2             3    7     1      -0.5098069901E-02       4    5    1        -0.2307074353E+00      0.6515610753E+00
          0                 3           2             3    7     1       0.3471598125E-03       4    5    1         0.1614955639E-01      0.4560927747E-01
          0                 4           1             3    7     1      -0.1381381734E-04       4    5    1        -0.6605176477E-03      0.1865420670E-02

    ------------------------------------------------
       NWT REQUIRED            4 OUTER ITERATIONS 
       AND A TOTAL OF          7 INNER ITERATIONS.
    ------------------------------------------------

 NO OUTPUT CONTROL FOR STRESS PERIOD   22   TIME STEP   21
 
 SOLVING FOR HEAD 
                                                   Max.-Head-Change                         Max.-Flux-Residual
  Residual-Control   Outer-Iter.   Inner-Iter.     Column Row Layer    Maximum-Head-Change  Column Row Layer    Maximum-Flux-Residual          L2-NORM 
          0                 1           2             3    7     1       0.5124552884E-01       4    5    1         0.2208382435E+01      0.6296788943E+01
          0                 2           2             3    7     1      -0.4984777887E-02       4    5    1        -0.2208355023E+00      0.6295458771E+00
          0                 3           2             3    7     1       0.3394450683E-03       4    5    1         0.1545851777E-01      0.4406074935E-01
          0                 4           1             3    7     1      -0.1350684203E-04       4    5    1        -0.6322541353E-03      0.1802074109E-02

    ------------------------------------------------
       NWT REQUIRED            4 OUTER ITERATIONS 
       AND A TOTAL OF          7 INNER ITERATIONS.
    ------------------------------------------------

 NO OUTPUT CONTROL FOR STRESS PERIOD   22   TIME STEP   22
 
 SOLVING FOR HEAD 
                                                   Max.-Head-Change                         Max.-Flux-Residual
  Residual-Control   Outer-Iter.   Inner-Iter.     Column Row Layer    Maximum-Head-Change  Column Row Layer    Maximum-Flux-Residual          L2-NORM 
          0                 1           2             3    7     1       0.5010904347E-01       4    5    1         0.2114611444E+01      0.6088772280E+01
          0                 2           2             5    8     1      -0.1107728130E-01       5    8    1        -0.6096101488E+00      0.1253729491E+01
          0                 3           2             4    8     1       0.7213858142E-02       4    8    1         0.3917476257E+00      0.9539670770E+00
          0                 4           2             4    8     1      -0.8251284112E-03       4    8    1        -0.4621307177E-01      0.1082294741E+00
          0                 5           2             4    7     1      -0.2552355835E+00       5    8    1        -0.1409214467E+02      0.3451553053E+02
          0                 6           2             4    7     1       0.1015723559E-01       5    7    1         0.5827429639E+00      0.1301875684E+01
          0                 7           2             4    7     1      -0.1253572539E-03       5    7    1        -0.7471437587E-02      0.1670356143E-01
          0                 8           1             4    7     1      -0.1842478941E-05       5    7    1        -0.1098124062E-03      0.2454986020E-03

    ------------------------------------------------
       NWT REQUIRED            8 OUTER ITERATIONS 
       AND A TOTAL OF         15 INNER ITERATIONS.
    ------------------------------------------------

 NO OUTPUT CONTROL FOR STRESS PERIOD   22   TIME STEP   23
 
 SOLVING FOR HEAD 
                                                   Max.-Head-Change                         Max.-Flux-Residual
  Residual-Control   Outer-Iter.   Inner-Iter.     Column Row Layer    Maximum-Head-Change  Column Row Layer    Maximum-Flux-Residual          L2-NORM 
          0                 1           2             3    7     1       0.4639215726E-01       4    5    1         0.1825060078E+01      0.5318974934E+01
          0                 2           2             5    8     1      -0.5324698700E-01       5    8    1        -0.2929761098E+01      0.6801262146E+01
          0                 3           2             4    8     1       0.5109246291E-02       4    8    1         0.2783577710E+00      0.6464656235E+00
          0                 4           2             4    8     1      -0.3479220743E-03       4    8    1        -0.1956630810E-01      0.4376161098E-01
          0                 5           1             4    8     1       0.1384411812E-04       4    8    1         0.8034827299E-03      0.1764399388E-02

    ------------------------------------------------
       NWT REQUIRED            5 OUTER ITERATIONS 
       AND A TOTAL OF          9 INNER ITERATIONS.
    ------------------------------------------------

 NO OUTPUT CONTROL FOR STRESS PERIOD   22   TIME STEP   24
 
 SOLVING FOR HEAD 
                                                   Max.-Head-Change                         Max.-Flux-Residual
  Residual-Control   Outer-Iter.   Inner-Iter.     Column Row Layer    Maximum-Head-Change  Column Row Layer    Maximum-Flux-Residual          L2-NORM 
          0                 1           2             3    7     1       0.4484850852E-01       4    5    1         0.1710762721E+01      0.5060332142E+01
          0                 2           2             3    7     1      -0.4362527029E-02       4    5    1        -0.1710752066E+00      0.5059622766E+00
          0                 3           2             3    7     1       0.2970720129E-03       4    5    1         0.1197527973E-01      0.3542828507E-01
          0                 4           1             3    7     1      -0.1182077265E-04       4    5    1        -0.4897895785E-03      0.1448998008E-02

    ------------------------------------------------
       NWT REQUIRED            4 OUTER ITERATIONS 
       AND A TOTAL OF          7 INNER ITERATIONS.
    ------------------------------------------------

 NO OUTPUT CONTROL FOR STRESS PERIOD   22   TIME STEP   25
 
 SOLVING FOR HEAD 
                                                   Max.-Head-Change                         Max.-Flux-Residual
  Residual-Control   Outer-Iter.   Inner-Iter.     Column Row Layer    Maximum-Head-Change  Column Row Layer    Maximum-Flux-Residual          L2-NORM 
          0                 1           2             3    7     1       0.4385673823E-01       4    5    1         0.1641808082E+01      0.4912304917E+01
          0                 2           2             3    7     1      -0.4266055999E-02       4    5    1        -0.1641798697E+00      0.4904872234E+00
          0                 3           2             3    7     1       0.2905026852E-03       4    5    1         0.1149260471E-01      0.3433401191E-01
          0                 4           1             3    7     1      -0.1155937324E-04       4    5    1        -0.4700481429E-03      0.1404241568E-02

    ------------------------------------------------
       NWT REQUIRED            4 OUTER ITERATIONS 
       AND A TOTAL OF          7 INNER ITERATIONS.
    ------------------------------------------------

 NO OUTPUT CONTROL FOR STRESS PERIOD   22   TIME STEP   26
 
 SOLVING FOR HEAD 
                                                   Max.-Head-Change                         Max.-Flux-Residual
  Residual-Control   Outer-Iter.   Inner-Iter.     Column Row Layer    Maximum-Head-Change  Column Row Layer    Maximum-Flux-Residual          L2-NORM 
          0                 1           2             3    7     1       0.4289153885E-01       4    5    1         0.1576400096E+01      0.4772044318E+01
          0                 2           2             3    7     1      -0.4172169236E-02       4    5    1        -0.1576391842E+00      0.4772016548E+00
          0                 3           2             3    7     1       0.2841094031E-03       4    5    1         0.1103475547E-01      0.3340383035E-01
          0                 4           1             3    7     1      -0.1130497993E-04       4    5    1        -0.4513220908E-03      0.1366218513E-02

    ------------------------------------------------
       NWT REQUIRED            4 OUTER ITERATIONS 
       AND A TOTAL OF          7 INNER ITERATIONS.
    ------------------------------------------------

 NO OUTPUT CONTROL FOR STRESS PERIOD   22   TIME STEP   27
 
 SOLVING FOR HEAD 
                                                   Max.-Head-Change                         Max.-Flux-Residual
  Residual-Control   Outer-Iter.   Inner-Iter.     Column Row Layer    Maximum-Head-Change  Column Row Layer    Maximum-Flux-Residual          L2-NORM 
          0                 1           2             3    7     1       0.4195245580E-01       4    5    1         0.1514341794E+01      0.4638408539E+01
          0                 2           2             5    8     1      -0.1162910048E-01       5    8    1        -0.6402869972E+00      0.1320684658E+01
          0                 3           2             4    8     1       0.7300760780E-02       5    6    1         0.3967517494E+00      0.9655115213E+00
          0                 4           2             4    8     1      -0.8310601027E-03       4    8    1        -0.4654886289E-01      0.1090490314E+00
          0                 5           2             4    7     1      -0.2567934584E+00       5    8    1        -0.1417783318E+02      0.3472539411E+02
          0                 6           2             4    7     1       0.1021516914E-01       4    8    1         0.5848402440E+00      0.1304494521E+01
          0                 7           2             4    7     1      -0.1260721656E-03       4    8    1        -0.7481237497E-02      0.1673994329E-01
          0                 8           1             4    7     1      -0.1852986923E-05       4    8    1        -0.1099565643E-03      0.2460578212E-03

    ------------------------------------------------
       NWT REQUIRED            8 OUTER ITERATIONS 
       AND A TOTAL OF         15 INNER ITERATIONS.
    ------------------------------------------------

 NO OUTPUT CONTROL FOR STRESS PERIOD   22   TIME STEP   28
 
 SOLVING FOR HEAD 
                                                   Max.-Head-Change                         Max.-Flux-Residual
  Residual-Control   Outer-Iter.   Inner-Iter.     Column Row Layer    Maximum-Head-Change  Column Row Layer    Maximum-Flux-Residual          L2-NORM 
          0                 1           2             3    7     1       0.3842155034E-01       5    8    1         0.1327848411E+01      0.4122091218E+01
          0                 2           2             5    8     1      -0.5378545382E-01       5    8    1        -0.2959924321E+01      0.6910337369E+01
          0                 3           2             4    8     1       0.5192537271E-02       5    7    1         0.2835491670E+00      0.6259259372E+00
          0                 4           2             4    8     1      -0.3535938795E-03       5    7    1        -0.2004149111E-01      0.4080194897E-01
          0                 5           1             4    8     1       0.1406982233E-04       5    7    1         0.8273549197E-03      0.1628872700E-02

    ------------------------------------------------
       NWT REQUIRED            5 OUTER ITERATIONS 
       AND A TOTAL OF          9 INNER ITERATIONS.
    ------------------------------------------------

 NO OUTPUT CONTROL FOR STRESS PERIOD   22   TIME STEP   29
 
 SOLVING FOR HEAD 
                                                   Max.-Head-Change                         Max.-Flux-Residual
  Residual-Control   Outer-Iter.   Inner-Iter.     Column Row Layer    Maximum-Head-Change  Column Row Layer    Maximum-Flux-Residual          L2-NORM 
          0                 1           2             3    7     1       0.3707176811E-01       5    8    1         0.1354489309E+01      0.3960446210E+01
          0                 2           2             3    7     1      -0.3606068254E-02       5    8    1        -0.1354510573E+00      0.3960439974E+00
          0                 3           2             3    7     1       0.2455599175E-03       5    8    1         0.9481557973E-02      0.2772295974E-01
          0                 4           1             3    7     1      -0.9771060309E-05       5    8    1        -0.3877963620E-03      0.1133884099E-02

    ------------------------------------------------
       NWT REQUIRED            4 OUTER ITERATIONS 
       AND A TOTAL OF          7 INNER ITERATIONS.
    ------------------------------------------------

 NO OUTPUT CONTROL FOR STRESS PERIOD   22   TIME STEP   30



 STREAM LISTING     PERIOD     22   STEP       30

 LAYER ROW COL. STREAM  RCH.  FLOW INTO     FLOW TO   FLOW OUT OF   OVRLND.     DIRECT     STREAM       STREAM     STREAM     STREAM   STREAMBED  STREAMBED
                SEG.NO.  NO.  STRM. RCH.    AQUIFER    STRM. RCH.    RUNOFF     PRECIP       ET          HEAD       DEPTH      WIDTH   CONDCTNC.   GRADIENT

   1    1    1     1     1    9.1618E+00  1.4063E-01   9.0211E+00  0.000E+00  0.000E+00  0.000E+00  1.09392E+03  8.721E-01  8.071E+00  3.632E-02  1.291E+00
   1    2    2     1     2    9.0211E+00  2.1609E-01   8.8050E+00  0.000E+00  0.000E+00  0.000E+00  1.08893E+03  8.664E-01  7.984E+00  5.589E-02  1.289E+00
   1    3    3     1     3    8.8050E+00  1.8264E-01   8.6224E+00  0.000E+00  0.000E+00  0.000E+00  1.08328E+03  8.600E-01  7.886E+00  4.732E-02  1.287E+00
   1    3    4     1     4    8.6224E+00  1.6685E-01   8.4556E+00  0.000E+00  0.000E+00  0.000E+00  1.07826E+03  8.543E-01  7.800E+00  4.329E-02  1.285E+00
   1    4    5     2     1    6.4556E+00  2.7527E-01   6.1803E+00  0.000E+00  0.000E+00  0.000E+00  1.07246E+03  5.290E-01  1.200E+01  7.800E-02  1.176E+00
   1    5    6     2     2    6.1803E+00  2.1100E-01   5.9693E+00  0.000E+00  0.000E+00  0.000E+00  1.06703E+03  5.167E-01  1.200E+01  6.000E-02  1.172E+00
   1    6    6     2     3    5.9693E+00  2.1035E-01   5.7589E+00  0.000E+00  0.000E+00  0.000E+00  1.06230E+03  5.059E-01  1.200E+01  6.000E-02  1.169E+00
   1    7    6     2     4    5.7589E+00  2.0970E-01   5.5492E+00  0.000E+00  0.000E+00  0.000E+00  1.05757E+03  4.950E-01  1.200E+01  6.000E-02  1.165E+00
   1    8    6     2     5    5.5492E+00  2.0903E-01   5.3402E+00  0.000E+00  0.000E+00  0.000E+00  1.05284E+03  4.839E-01  1.200E+01  6.000E-02  1.161E+00
   1    3    5     3     1    2.0000E+00  2.8252E-01   1.7175E+00  0.000E+00  0.000E+00  0.000E+00  1.07555E+03  1.909E+00  9.636E+00  7.227E-02  1.955E+00
   1    3    6     3     2    1.7175E+00  2.4905E-01   1.4684E+00  0.000E+00  0.000E+00  0.000E+00  1.07264E+03  1.727E+00  8.909E+00  6.682E-02  1.864E+00
   1    3    7     3     3    1.4684E+00  1.9718E-01   1.2712E+00  0.000E+00  0.000E+00  0.000E+00  1.06987E+03  1.555E+00  8.218E+00  5.547E-02  1.777E+00
   1    4    8     3     4    1.2712E+00  2.2567E-01   1.0456E+00  0.000E+00  0.000E+00  0.000E+00  1.06682E+03  1.364E+00  7.455E+00  6.709E-02  1.682E+00
   1    5    8     3     5    1.0456E+00  1.5790E-01   8.8768E-01  0.000E+00  0.000E+00  0.000E+00  1.06362E+03  1.164E+00  6.655E+00  4.991E-02  1.582E+00
   1    6    8     3     6    8.8768E-01  5.5980E-02   8.3170E-01  0.000E+00  0.000E+00  0.000E+00  1.06158E+03  1.036E+00  6.145E+00  1.844E-02  1.518E+00
   1    5   10     4     1    1.0000E+01  9.0919E-02   9.9091E+00  0.000E+00  0.000E+00  0.000E+00  1.07836E+03  6.368E-01  1.000E+01  2.500E-02  1.212E+00
   1    5    9     4     2    9.9091E+00  1.8158E-01   9.7275E+00  0.000E+00  0.000E+00  0.000E+00  1.07154E+03  6.315E-01  1.000E+01  5.000E-02  1.211E+00
   1    6    8     4     3    9.7275E+00  1.2689E-01   9.6006E+00  0.000E+00  0.000E+00  0.000E+00  1.06381E+03  6.256E-01  1.000E+01  3.500E-02  1.209E+00
   1    6    8     5     1    1.0432E+01  2.2686E-01   1.0205E+01  0.000E+00  0.000E+00  0.000E+00  1.05868E+03  6.790E-01  1.542E+01  6.166E-02  1.226E+00
   1    7    7     5     2    1.0205E+01  2.7894E-01   9.9265E+00  0.000E+00  0.000E+00  0.000E+00  1.05417E+03  6.732E-01  1.519E+01  7.594E-02  1.224E+00
   1    8    7     5     3    9.9265E+00  1.9221E-01   9.7343E+00  0.000E+00  0.000E+00  0.000E+00  1.04992E+03  6.676E-01  1.497E+01  5.241E-02  1.223E+00
   1    8    6     5     4    9.7343E+00  1.3577E-01   9.5985E+00  0.000E+00  0.000E+00  0.000E+00  1.04691E+03  6.637E-01  1.482E+01  3.706E-02  1.221E+00
   1    9    6     6     1    1.4939E+01  2.3354E-01   1.4705E+01  0.000E+00  0.000E+00  0.000E+00  1.04362E+03  8.923E-01  1.200E+01  6.000E-02  1.297E+00
   1   10    7     6     2    1.4705E+01  2.3303E-01   1.4472E+01  0.000E+00  0.000E+00  0.000E+00  1.03907E+03  8.839E-01  1.200E+01  6.000E-02  1.295E+00
   1   11    7     6     3    1.4472E+01  2.3252E-01   1.4240E+01  0.000E+00  0.000E+00  0.000E+00  1.03451E+03  8.754E-01  1.200E+01  6.000E-02  1.292E+00
   1   12    7     6     4    1.4240E+01  2.3201E-01   1.4008E+01  0.000E+00  0.000E+00  0.000E+00  1.02996E+03  8.668E-01  1.200E+01  6.000E-02  1.289E+00
   1   13    7     6     5    1.4008E+01  7.4870E-03   1.4000E+01  0.000E+00  0.000E+00  0.000E+00  1.02677E+03  8.624E-01  1.200E+01  2.400E-02  1.040E-01
   1   14    9     7     1    1.5000E+02  1.3891E+00   1.4861E+02  0.000E+00  0.000E+00  0.000E+00  1.03987E+03  2.288E+00  5.529E+01  5.593E-01  8.279E-01
   1   13    8     7     2    1.4861E+02  2.0238E+00   1.4659E+02  0.000E+00  0.000E+00  0.000E+00  1.03478E+03  2.279E+00  5.525E+01  6.147E-01  1.097E+00
   1   13    7     7     3    1.4659E+02  1.8024E+00   1.4478E+02  0.000E+00  0.000E+00  0.000E+00  1.02969E+03  2.268E+00  5.521E+01  5.583E-01  1.076E+00
   1   13    6     8     1    1.5878E+02  1.1900E+00   1.5759E+02  0.000E+00  0.000E+00  0.000E+00  1.02475E+03  2.874E+00  4.167E+01  4.246E-01  9.342E-01
   1   13    5     8     2    1.5759E+02  4.4131E-01   1.5715E+02  0.000E+00  0.000E+00  0.000E+00  1.01849E+03  2.868E+00  4.159E+01  4.238E-01  3.471E-01
   1   13    4     8     3    1.5715E+02 -1.4654E+00   1.5862E+02  0.000E+00  0.000E+00  0.000E+00  1.01225E+03  2.871E+00  4.164E+01  4.243E+00 -1.151E-01
   1   13    3     8     4    1.5862E+02 -3.1730E+00   1.6179E+02  0.000E+00  0.000E+00  0.000E+00  1.00601E+03  2.887E+00  4.186E+01  4.266E+00 -2.479E-01
   1   13    2     8     5    1.6179E+02 -2.4343E+00   1.6423E+02  0.000E+00  0.000E+00  0.000E+00  9.99781E+02  2.906E+00  4.214E+01  4.294E+00 -1.890E-01
   1   13    1     8     6    1.6423E+02 -1.9336E+00   1.6616E+02  0.000E+00  0.000E+00  0.000E+00  9.94796E+02  2.921E+00  4.235E+01  2.589E+00 -2.489E-01
   1    8    6     9     1    0.0000E+00  0.0000E+00   0.0000E+00  0.000E+00  0.000E+00  0.000E+00  1.07875E+03  0.000E+00  4.000E+00  0.000E+00  1.000E+00
   1    8    5     9     2    0.0000E+00  0.0000E+00   0.0000E+00  0.000E+00  0.000E+00  0.000E+00  1.07825E+03  0.000E+00  4.000E+00  0.000E+00  1.000E+00





UNSATURATED ZONE PACKAGE VOLUMETRIC BUDGET FOR  TIME STEP    30 STRESS PERIOD   22
  ------------------------------------------------------------------------------



     CUMULATIVE VOLUMES      L**3       RATES FOR THIS TIME STEP      L**3/T
     ------------------                 ------------------------

           IN:                                      IN:
           ---                                      ---
        INFILTRATION =  6656377525.7944          INFILTRATION =           0.8475

          OUT:                                     OUT:
          ----                                     ----
              UZF ET =   855097350.0706                UZF ET =          12.1535
        UZF RECHARGE =  5184312111.7563          UZF RECHARGE =       0.0000E+00

            IN - OUT =   616968063.9675              IN - OUT =         -11.3060

          STORAGE:                                 STORAGE:
          --------                                 --------
      STORAGE CHANGE =   617679995.8079        STORAGE CHANGE =         -11.2973

 PERCENT DISCREPANCY IS DIFFERENCE BETWEEN IN-OUT MINUS CHANGE IN STORAGE
 DIVIDED BY THE AVERAGE OF IN AND OUT TIMES 100

 PERCENT DISCREPANCY =          -0.00     PERCENT DISCREPANCY =          -0.07






1
  VOLUMETRIC BUDGET FOR AGRICULTURAL FIELDS AT  END OF TIME STEP   30, STRESS PERIOD  22
  ------------------------------------------------------------------------------

     CUMULATIVE VOLUMES      L**3       RATES FOR THIS TIME STEP      L**3/T
     ------------------                 ------------------------

           IN:                                      IN:
           ---                                      ---
               AG WELLS  =  6318206976.0000                 AG WELLS  =           0.0000
      DIVERSION SEGMENTS =   291316640.0000        DIVERSION SEGMENTS =           0.0000
           GW IRRIGATION =           0.0000             GW IRRIGATION =           0.0000
           SW IRRIGATION =           0.0000             SW IRRIGATION =           0.0000
        SYSTEM LOSSES GW =           0.0000          SYSTEM LOSSES GW =           0.0000
        SYSTEM LOSSES SW =           0.0000          SYSTEM LOSSES SW =           0.0000

                TOTAL IN =  6609523712.0000                  TOTAL IN =           0.0000

          OUT:                                     OUT:
          ----                                     ----
               AG WELLS  =           0.0000                 AG WELLS  =           0.0000
      DIVERSION SEGMENTS =           0.0000        DIVERSION SEGMENTS =           0.0000
           GW IRRIGATION =  6318206976.0000             GW IRRIGATION =           0.0000
           SW IRRIGATION =   291322048.0000             SW IRRIGATION =           0.0000
        SYSTEM LOSSES GW =           0.0000          SYSTEM LOSSES GW =           0.0000
        SYSTEM LOSSES SW =           0.0000          SYSTEM LOSSES SW =           0.0000

               TOTAL OUT =  6609528832.0000                 TOTAL OUT =           0.0000

                IN - OUT =       -5120.0000                  IN - OUT =           0.0000

     PERCENT DISCREPANCY =          -0.00         PERCENT DISCREPANCY =           0.00



1
  VOLUMETRIC BUDGET FOR ENTIRE MODEL AT END OF TIME STEP   30, STRESS PERIOD  22
  ------------------------------------------------------------------------------

     CUMULATIVE VOLUMES      L**3       RATES FOR THIS TIME STEP      L**3/T
     ------------------                 ------------------------

           IN:                                      IN:
           ---                                      ---
             STORAGE     =  5739203072.0000               STORAGE     =          11.5280
       CONSTANT HEAD     =           0.0000         CONSTANT HEAD     =           0.0000
     HEAD DEP BOUNDS     =    15946465.0000       HEAD DEP BOUNDS     =           0.2894
      STREAM LEAKAGE     =   666003008.0000        STREAM LEAKAGE     =          12.0081
        UZF RECHARGE     =  5184310272.0000          UZF RECHARGE     =           0.0000
               GW ET     =           0.0000                 GW ET     =           0.0000
     SURFACE LEAKAGE     =           0.0000       SURFACE LEAKAGE     =           0.0000
           AG WELLS      =           0.0000             AG WELLS      =           0.0000

                TOTAL IN = 11605463040.0000                  TOTAL IN =          23.8255

          OUT:                                     OUT:
          ----                                     ----
             STORAGE     =  4730265088.0000               STORAGE     =          14.5325
       CONSTANT HEAD     =           0.0000         CONSTANT HEAD     =           0.0000
     HEAD DEP BOUNDS     =    15933903.0000       HEAD DEP BOUNDS     =           0.2866
      STREAM LEAKAGE     =   540999424.0000        STREAM LEAKAGE     =           9.0063
        UZF RECHARGE     =           0.0000          UZF RECHARGE     =           0.0000
               GW ET     =           0.0000                 GW ET     =           0.0000
     SURFACE LEAKAGE     =           0.0000       SURFACE LEAKAGE     =           0.0000
           AG WELLS      =  6318206976.0000             AG WELLS      =           0.0000

               TOTAL OUT = 11605405696.0000                 TOTAL OUT =          23.8255

                IN - OUT =       57344.0000                  IN - OUT =       1.5259E-05

     PERCENT DISCREPANCY =           0.00         PERCENT DISCREPANCY =           0.00






         TIME SUMMARY AT END OF TIME STEP   30 IN STRESS PERIOD   22
                    SECONDS     MINUTES      HOURS       DAYS        YEARS
                    -----------------------------------------------------------
   TIME STEP LENGTH  87667.      1461.1      24.352      1.0147     2.77799E-03
 STRESS PERIOD TIME 2.63000E+06  43833.      730.56      30.440     8.33397E-02
         TOTAL TIME 5.53166E+07 9.21944E+05  15366.      640.24      1.7529    
1
1
                            STRESS PERIOD NO.   23, LENGTH =   2630000.    
                            -----------------------------------------------

                              NUMBER OF TIME STEPS =    30

                               MULTIPLIER FOR DELT =     1.000

                            INITIAL TIME STEP SIZE =   87666.66    

 REUSING NON-PARAMETER GHB CELLS FROM LAST STRESS PERIOD

      2 GHB CELLS

 REUSING STREAM SEGMENT DATA FROM LAST STRESS PERIOD



            AREAL INFILTRATION RATE
 READING ON UNIT   19 WITH FORMAT: (FREE)              

            1           2           3           4           5           6           7           8           9          10
 ........................................................................................................................
   1   1.0000E-10  2.0000E-10   0.000       0.000       0.000       0.000       0.000       0.000       0.000       0.000    
   2   2.0000E-10  1.0000E-10  2.0000E-10   0.000       0.000      8.0000E-10  8.0000E-10  5.0000E-10   0.000       0.000    
   3    0.000      5.0000E-10  1.0000E-10  1.0000E-10  8.0000E-10  8.0000E-10  5.0000E-10  5.0000E-10   0.000       0.000    
   4   8.0000E-10  5.0000E-10  1.0000E-10  1.0000E-10  1.0000E-10  1.0000E-10  1.0000E-10  1.0000E-10  2.0000E-10   0.000    
   5   8.0000E-10  5.0000E-10  1.0000E-10  1.0000E-10  1.0000E-10  1.0000E-10  1.0000E-10  1.0000E-10  1.0000E-10  1.0000E-10
   6   8.0000E-10  5.0000E-10  5.0000E-10  2.0000E-10  2.0000E-10  1.0000E-10  1.0000E-10  1.0000E-10  1.0000E-10  5.0000E-10
   7   8.0000E-10  5.0000E-10  5.0000E-10  2.0000E-10  2.0000E-10  1.0000E-10  1.0000E-10  2.0000E-10  2.0000E-10   0.000    
   8    0.000      5.0000E-10  5.0000E-10  2.0000E-10  2.0000E-10  1.0000E-10  1.0000E-10  2.0000E-10  5.0000E-10   0.000    
   9    0.000      5.0000E-10  5.0000E-10  2.0000E-10  2.0000E-10  1.0000E-10  1.0000E-10  2.0000E-10  5.0000E-10   0.000    
  10    0.000      5.0000E-10  5.0000E-10  2.0000E-10  2.0000E-10  1.0000E-10  1.0000E-10  2.0000E-10  5.0000E-10  8.0000E-10
  11    0.000      1.0000E-10  1.0000E-10  1.0000E-10  1.0000E-10  1.0000E-10  1.0000E-10  2.0000E-10  5.0000E-10   0.000    
  12   1.0000E-10  1.0000E-10  1.0000E-10  1.0000E-10  1.0000E-10  1.0000E-10  1.0000E-10  1.0000E-10  2.0000E-10   0.000    
  13   1.0000E-10  1.0000E-10  2.0000E-10  2.0000E-10  2.0000E-10  2.0000E-10  2.0000E-10  1.0000E-10  1.0000E-10   0.000    
  14    0.000      2.0000E-10  5.0000E-10  5.0000E-10  5.0000E-10  5.0000E-10  5.0000E-10  2.0000E-10  1.0000E-10   0.000    
  15    0.000       0.000      8.0000E-10  8.0000E-10  8.0000E-10  8.0000E-10   0.000       0.000       0.000       0.000    

                  ET RATE =  5.000000E-09

 USING ET EXTINCTION DEPTH FROM PREVIOUS STRESS PERIOD. CURRENT PERIOD IS:      23

 USING EXTINCTION WATER CONTENT FROM PREVIOUS STRESS PERIOD. CURRENT PERIOD IS:      23

 USING AIR ENTRY PRESSURE FROM PREVIOUS STRESS PERIOD. CURRENT PERIOD IS:      23

 USING ROOT PRESSURE HEAD FROM PREVIOUS STRESS PERIOD. CURRENT PERIOD IS:      23

 USING ROOT ACTIVITY FROM PREVIOUS STRESS PERIOD. CURRENT PERIOD IS:      23

 PROCESSING AG STRESS PERIOD DATA

 READING AG STRESS PERIOD DATA

 READING IRRIGATION SEGMENT

 READING IRRIGATION WELL

 READING SUPPLEMENTAL WELL

 END PROCESSING AG STRESS PERIOD DATA OPTIONS
 
 SOLVING FOR HEAD 
                                                   Max.-Head-Change                         Max.-Flux-Residual
  Residual-Control   Outer-Iter.   Inner-Iter.     Column Row Layer    Maximum-Head-Change  Column Row Layer    Maximum-Flux-Residual          L2-NORM 
          0                 1           2             3    7     1       0.3627041768E-01       5    8    1         0.1296440463E+01      0.3861268919E+01
          0                 2           2             3    7     1      -0.3528119559E-02       5    8    1        -0.1296459611E+00      0.3861275748E+00
          0                 3           2             3    7     1       0.2402518922E-03       5    8    1         0.9075203082E-02      0.2702892395E-01
          0                 4           1             3    7     1      -0.9559849746E-05       5    8    1        -0.3711764102E-03      0.1105484595E-02

    ------------------------------------------------
       NWT REQUIRED            4 OUTER ITERATIONS 
       AND A TOTAL OF          7 INNER ITERATIONS.
    ------------------------------------------------

 NO OUTPUT CONTROL FOR STRESS PERIOD   23   TIME STEP    1
 
 SOLVING FOR HEAD 
                                                   Max.-Head-Change                         Max.-Flux-Residual
  Residual-Control   Outer-Iter.   Inner-Iter.     Column Row Layer    Maximum-Head-Change  Column Row Layer    Maximum-Flux-Residual          L2-NORM 
          0                 1           2             3    7     1       0.3549328201E-01       5    8    1         0.1242569001E+01      0.3767479585E+01
          0                 2           2             3    7     1      -0.3452523966E-02       5    8    1        -0.1242586266E+00      0.3769112348E+00
          0                 3           2             3    7     1       0.2351041046E-03       5    8    1         0.8698091286E-02      0.2638372964E-01
          0                 4           1             3    7     1      -0.9355014719E-05       5    8    1        -0.3557525092E-03      0.1079098169E-02

    ------------------------------------------------
       NWT REQUIRED            4 OUTER ITERATIONS 
       AND A TOTAL OF          7 INNER ITERATIONS.
    ------------------------------------------------

 NO OUTPUT CONTROL FOR STRESS PERIOD   23   TIME STEP    2
 
 SOLVING FOR HEAD 
                                                   Max.-Head-Change                         Max.-Flux-Residual
  Residual-Control   Outer-Iter.   Inner-Iter.     Column Row Layer    Maximum-Head-Change  Column Row Layer    Maximum-Flux-Residual          L2-NORM 
          0                 1           2             3    7     1       0.3473907480E-01       5    8    1         0.1192548859E+01      0.3678418240E+01
          0                 2           2             3    7     1      -0.3379163160E-02       5    8    1        -0.1192564450E+00      0.3678424239E+00
          0                 3           2             3    7     1       0.2301084987E-03       5    8    1         0.8347940005E-02      0.2574895941E-01
          0                 4           1             3    7     1      -0.9156236210E-05       5    8    1        -0.3414312916E-03      0.1053134394E-02

    ------------------------------------------------
       NWT REQUIRED            4 OUTER ITERATIONS 
       AND A TOTAL OF          7 INNER ITERATIONS.
    ------------------------------------------------

 NO OUTPUT CONTROL FOR STRESS PERIOD   23   TIME STEP    3
 
 SOLVING FOR HEAD 
                                                   Max.-Head-Change                         Max.-Flux-Residual
  Residual-Control   Outer-Iter.   Inner-Iter.     Column Row Layer    Maximum-Head-Change  Column Row Layer    Maximum-Flux-Residual          L2-NORM 
          0                 1           2             5    8     1       0.7524403728E-01       5    8    1         0.4125924050E+01      0.5350253094E+01
          0                 2           2             5    8     1       0.2824896405E-01       5    8    1         0.1560727282E+01      0.1597462835E+01
          0                 3           2             5    8     1       0.1060557139E-01       5    8    1         0.5848306742E+00      0.5853303245E+00
          0                 4           1             5    8     1       0.3981677519E-02       5    8    1         0.2196320855E+00      0.2196342790E+00
          0                 5           1             5    8     1       0.1494852250E-02       5    8    1         0.8245412876E-01      0.8245450680E-01
          0                 6           1             5    8     1       0.5612166169E-03       5    8    1         0.3095614230E-01      0.3095626864E-01
          0                 7           1             5    8     1       0.2106991570E-03       5    8    1         0.1162194537E-01      0.1162199339E-01
          0                 8           1             5    8     1       0.7910338789E-04       5    8    1         0.4363261018E-02      0.4363279028E-02

    ------------------------------------------------
       NWT REQUIRED            8 OUTER ITERATIONS 
       AND A TOTAL OF         11 INNER ITERATIONS.
    ------------------------------------------------

 NO OUTPUT CONTROL FOR STRESS PERIOD   23   TIME STEP    4
 
 SOLVING FOR HEAD 
                                                   Max.-Head-Change                         Max.-Flux-Residual
  Residual-Control   Outer-Iter.   Inner-Iter.     Column Row Layer    Maximum-Head-Change  Column Row Layer    Maximum-Flux-Residual          L2-NORM 
          0                 1           2             5    8     1       0.1495213377E+00       5    8    1         0.8217688344E+01      0.8886950491E+01
          0                 2           2             5    8     1       0.5613199193E-01       5    8    1         0.3099469369E+01      0.3117929462E+01
          0                 3           2             5    8     1       0.2107283913E-01       5    8    1         0.1162192122E+01      0.1162450668E+01
          0                 4           2             5    8     1       0.7911094577E-02       5    8    1         0.4363920623E+00      0.4363940908E+00
          0                 5           1             5    8     1       0.2969958967E-02       5    8    1         0.1638244679E+00      0.1638251830E+00
          0                 6           1             5    8     1       0.1114973262E-02       5    8    1         0.6150284243E-01      0.6150309539E-01
          0                 7           1             5    8     1       0.4185800300E-03       5    8    1         0.2308919746E-01      0.2308929297E-01
          0                 8           1             5    8     1       0.1571421086E-03       5    8    1         0.8668082847E-02      0.8668118685E-02
          0                 9           1             5    8     1       0.5899383823E-04       5    8    1         0.3254146615E-02      0.3254160113E-02

    ------------------------------------------------
       NWT REQUIRED            9 OUTER ITERATIONS 
       AND A TOTAL OF         13 INNER ITERATIONS.
    ------------------------------------------------

 NO OUTPUT CONTROL FOR STRESS PERIOD   23   TIME STEP    5
 
 SOLVING FOR HEAD 
                                                   Max.-Head-Change                         Max.-Flux-Residual
  Residual-Control   Outer-Iter.   Inner-Iter.     Column Row Layer    Maximum-Head-Change  Column Row Layer    Maximum-Flux-Residual          L2-NORM 
          0                 1           2             5    8     1       0.1350058287E+00       5    8    1         0.7406011861E+01      0.8170186242E+01
          0                 2           2             5    8     1       0.5068124352E-01       5    8    1         0.2799972642E+01      0.2821146269E+01
          0                 3           2             5    8     1       0.1902585097E-01       5    8    1         0.1049212013E+01      0.1049513935E+01
          0                 4           2             5    8     1       0.7142360347E-02       5    8    1         0.3940071862E+00      0.3940092026E+00
          0                 5           1             5    8     1       0.2681264994E-02       5    8    1         0.1479035089E+00      0.1479041747E+00
          0                 6           1             5    8     1       0.1006555757E-02       5    8    1         0.5552411789E-01      0.5552434613E-01
          0                 7           1             5    8     1       0.3778644028E-03       5    8    1         0.2084388797E-01      0.2084397426E-01
          0                 8           1             5    8     1       0.1418515677E-03       5    8    1         0.7824871349E-02      0.7824904490E-02
          0                 9           1             5    8     1       0.5325155642E-04       5    8    1         0.2937482658E-02      0.2937496227E-02

    ------------------------------------------------
       NWT REQUIRED            9 OUTER ITERATIONS 
       AND A TOTAL OF         13 INNER ITERATIONS.
    ------------------------------------------------

 NO OUTPUT CONTROL FOR STRESS PERIOD   23   TIME STEP    6
 
 SOLVING FOR HEAD 
                                                   Max.-Head-Change                         Max.-Flux-Residual
  Residual-Control   Outer-Iter.   Inner-Iter.     Column Row Layer    Maximum-Head-Change  Column Row Layer    Maximum-Flux-Residual          L2-NORM 
          0                 1           2             5    8     1       0.1059079741E+00       5    8    1         0.5791539113E+01      0.6784674244E+01
          0                 2           2             5    8     1       0.3762654864E-01       5    8    1         0.2080812119E+01      0.2110609081E+01
          0                 3           2             5    8     1       0.1336786876E-01       5    8    1         0.7370495423E+00      0.7374963640E+00
          0                 4           1             5    8     1       0.4749312915E-02       5    8    1         0.2619829220E+00      0.2619854330E+00
          0                 5           1             5    8     1       0.1687328678E-02       5    8    1         0.9307185750E-01      0.9307283717E-01
          0                 6           1             5    8     1       0.5994717124E-03       5    8    1         0.3306665359E-01      0.3306696958E-01
          0                 7           1             5    8     1       0.2129794680E-03       5    8    1         0.1174786702E-01      0.1174798070E-01
          0                 8           1             5    8     1       0.7566704886E-04       5    8    1         0.4173766413E-02      0.4173807312E-02

    ------------------------------------------------
       NWT REQUIRED            8 OUTER ITERATIONS 
       AND A TOTAL OF         11 INNER ITERATIONS.
    ------------------------------------------------

 NO OUTPUT CONTROL FOR STRESS PERIOD   23   TIME STEP    7
 
 SOLVING FOR HEAD 
                                                   Max.-Head-Change                         Max.-Flux-Residual
  Residual-Control   Outer-Iter.   Inner-Iter.     Column Row Layer    Maximum-Head-Change  Column Row Layer    Maximum-Flux-Residual          L2-NORM 
          0                 1           2             5    8     1       0.7519542583E-01       5    8    1         0.4090941619E+01      0.5445150145E+01
          0                 2           2             5    8     1       0.2671466644E-01       5    8    1         0.1479511434E+01      0.1522527163E+01
          0                 3           2             5    8     1       0.9490942478E-02       5    8    1         0.5231518959E+00      0.5237911828E+00
          0                 4           1             5    8     1       0.3363982567E-02       5    8    1         0.1857482889E+00      0.1857508188E+00
          0                 5           1             5    8     1       0.1193656512E-02       5    8    1         0.6590513999E-01      0.6590587431E-01
          0                 6           1             5    8     1       0.4235504175E-03       5    8    1         0.2338561407E-01      0.2338584433E-01
          0                 7           1             5    8     1       0.1502902800E-03       5    8    1         0.8298014489E-02      0.8298097410E-02
          0                 8           1             5    8     1       0.5332817068E-04       5    8    1         0.2944422014E-02      0.2944451581E-02

    ------------------------------------------------
       NWT REQUIRED            8 OUTER ITERATIONS 
       AND A TOTAL OF         11 INNER ITERATIONS.
    ------------------------------------------------

 NO OUTPUT CONTROL FOR STRESS PERIOD   23   TIME STEP    8
 
 SOLVING FOR HEAD 
                                                   Max.-Head-Change                         Max.-Flux-Residual
  Residual-Control   Outer-Iter.   Inner-Iter.     Column Row Layer    Maximum-Head-Change  Column Row Layer    Maximum-Flux-Residual          L2-NORM 
          0                 1           2             5    8     1       0.6958413738E-01       5    8    1         0.3737149289E+01      0.6284106860E+01
          0                 2           2             4    8     1       0.2625993723E-01       4    8    1         0.1408607752E+01      0.1999309522E+01
          0                 3           2             4    8     1       0.1020959177E-01       4    8    1         0.5478339190E+00      0.7387341435E+00
          0                 4           2             4    8     1       0.3964818768E-02       4    8    1         0.2129569398E+00      0.2785101135E+00
          0                 5           2             4    8     1       0.1538115137E-02       4    8    1         0.8268126462E-01      0.1052568770E+00
          0                 6           2             4    8     1       0.5961416149E-03       4    8    1         0.3206874155E-01      0.3986234921E-01
          0                 7           2             4    8     1       0.2308578154E-03       4    8    1         0.1242686458E-01      0.1512398467E-01
          0                 8           1             4    8     1       0.8933246911E-04       4    8    1         0.4811531238E-02      0.5747400486E-02

    ------------------------------------------------
       NWT REQUIRED            8 OUTER ITERATIONS 
       AND A TOTAL OF         15 INNER ITERATIONS.
    ------------------------------------------------

 NO OUTPUT CONTROL FOR STRESS PERIOD   23   TIME STEP    9
 
 SOLVING FOR HEAD 
                                                   Max.-Head-Change                         Max.-Flux-Residual
  Residual-Control   Outer-Iter.   Inner-Iter.     Column Row Layer    Maximum-Head-Change  Column Row Layer    Maximum-Flux-Residual          L2-NORM 
          0                 1           2             4    8     1       0.1305051921E+00       4    8    1         0.7032581755E+01      0.9847948426E+01
          0                 2           2             4    8     1       0.4769845666E-01       4    8    1         0.2574494752E+01      0.3452400116E+01
          0                 3           2             4    8     1       0.1743927486E-01       4    8    1         0.9405383664E+00      0.1275508516E+01
          0                 4           2             4    8     1       0.6378218366E-02       4    8    1         0.3439264570E+00      0.4743797723E+00
          0                 5           2             4    8     1       0.2333542486E-02       4    8    1         0.1257959451E+00      0.1765473732E+00
          0                 6           2             4    8     1       0.8540365238E-03       4    8    1         0.4602713143E-01      0.6574869405E-01
          0                 7           2             4    8     1       0.3126660955E-03       4    8    1         0.1684633942E-01      0.2450110478E-01
          0                 8           2             4    8     1       0.1145059553E-03       4    8    1         0.6167944611E-02      0.9135861407E-02
          0                 9           1             4    8     1       0.4194861981E-04       4    8    1         0.2259010146E-02      0.3408551048E-02

    ------------------------------------------------
       NWT REQUIRED            9 OUTER ITERATIONS 
       AND A TOTAL OF         17 INNER ITERATIONS.
    ------------------------------------------------

 NO OUTPUT CONTROL FOR STRESS PERIOD   23   TIME STEP   10
 
 SOLVING FOR HEAD 
                                                   Max.-Head-Change                         Max.-Flux-Residual
  Residual-Control   Outer-Iter.   Inner-Iter.     Column Row Layer    Maximum-Head-Change  Column Row Layer    Maximum-Flux-Residual          L2-NORM 
          0                 1           2             5    7     1       0.1055173333E+00       5    7    1         0.5755208425E+01      0.9384772939E+01
          0                 2           2             5    7     1       0.3790938838E-01       5    7    1         0.2074641533E+01      0.3209435245E+01
          0                 3           2             4    8     1       0.1378865933E-01       5    7    1         0.7446698737E+00      0.1163380574E+01
          0                 4           2             4    8     1       0.5056170075E-02       4    8    1         0.2720871017E+00      0.4250838312E+00
          0                 5           2             4    8     1       0.1854564232E-02       4    8    1         0.9977646216E-01      0.1553896484E+00
          0                 6           2             4    8     1       0.6804153205E-03       4    8    1         0.3659945856E-01      0.5682915028E-01
          0                 7           2             4    8     1       0.2496952188E-03       4    8    1         0.1342859539E-01      0.2079179599E-01
          0                 8           1             4    8     1       0.9165215562E-04       4    8    1         0.4928204949E-02      0.7609749845E-02

    ------------------------------------------------
       NWT REQUIRED            8 OUTER ITERATIONS 
       AND A TOTAL OF         15 INNER ITERATIONS.
    ------------------------------------------------

 NO OUTPUT CONTROL FOR STRESS PERIOD   23   TIME STEP   11
 
 SOLVING FOR HEAD 
                                                   Max.-Head-Change                         Max.-Flux-Residual
  Residual-Control   Outer-Iter.   Inner-Iter.     Column Row Layer    Maximum-Head-Change  Column Row Layer    Maximum-Flux-Residual          L2-NORM 
          0                 1           2             5    7     1       0.9722555318E-01       5    7    1         0.5261722447E+01      0.9251776689E+01
          0                 2           2             4    8     1       0.3573215710E-01       4    8    1         0.1918661836E+01      0.3198531674E+01
          0                 3           2             4    8     1       0.1316803122E-01       4    8    1         0.7056382464E+00      0.1176209094E+01
          0                 4           2             4    8     1       0.4857000970E-02       4    8    1         0.2601500281E+00      0.4368587949E+00
          0                 5           2             4    8     1       0.1793010012E-02       4    8    1         0.9597157240E-01      0.1625241304E+00
          0                 6           2             4    8     1       0.6624408260E-03       4    8    1         0.3543528069E-01      0.6056560312E-01
          0                 7           2             4    8     1       0.2449316482E-03       4    8    1         0.1309404803E-01      0.2260510375E-01
          0                 8           1             4    8     1       0.9062761174E-04       4    8    1         0.4842192278E-02      0.8449346349E-02

    ------------------------------------------------
       NWT REQUIRED            8 OUTER ITERATIONS 
       AND A TOTAL OF         15 INNER ITERATIONS.
    ------------------------------------------------

 NO OUTPUT CONTROL FOR STRESS PERIOD   23   TIME STEP   12
 
 SOLVING FOR HEAD 
                                                   Max.-Head-Change                         Max.-Flux-Residual
  Residual-Control   Outer-Iter.   Inner-Iter.     Column Row Layer    Maximum-Head-Change  Column Row Layer    Maximum-Flux-Residual          L2-NORM 
          0                 1           2             4    6     1       0.1352119081E+00       4    6    1         0.7183497401E+01      0.1390276173E+02
          0                 2           2             4    6     1       0.5300764879E-01       4    6    1         0.2827674087E+01      0.5130430934E+01
          0                 3           2             4    6     1       0.2075497750E-01       4    6    1         0.1107431962E+01      0.1945247773E+01
          0                 4           2             4    6     1       0.8117376083E-02       4    6    1         0.4335495245E+00      0.7409435498E+00
          0                 5           2             4    6     1       0.3171485957E-02       4    6    1         0.1695234992E+00      0.2824317849E+00
          0                 6           2             4    6     1       0.1237948681E-02       4    6    1         0.6621989492E-01      0.1077407960E+00
          0                 7           2             4    6     1       0.4828029095E-03       4    6    1         0.2584323421E-01      0.4112938950E-01
          0                 8           2             4    6     1       0.1881461828E-03       4    6    1         0.1007719122E-01      0.1571116647E-01
          0                 9           1             4    6     1       0.7326681259E-04       4    6    1         0.3926417962E-02      0.6005204948E-02

    ------------------------------------------------
       NWT REQUIRED            9 OUTER ITERATIONS 
       AND A TOTAL OF         17 INNER ITERATIONS.
    ------------------------------------------------

 NO OUTPUT CONTROL FOR STRESS PERIOD   23   TIME STEP   13
 
 SOLVING FOR HEAD 
                                                   Max.-Head-Change                         Max.-Flux-Residual
  Residual-Control   Outer-Iter.   Inner-Iter.     Column Row Layer    Maximum-Head-Change  Column Row Layer    Maximum-Flux-Residual          L2-NORM 
          0                 1           2             4    7     1       0.1081668541E+00       5    6    1         0.5713702282E+01      0.1298623474E+02
          0                 2           2             4    7     1       0.4093952136E-01       4    7    1         0.2149905634E+01      0.4677764750E+01
          0                 3           2             4    7     1       0.1548788364E-01       4    7    1         0.8132748601E+00      0.1743099957E+01
          0                 4           2             4    7     1       0.5856693513E-02       4    7    1         0.3076642352E+00      0.6527585118E+00
          0                 5           2             4    7     1       0.2213775352E-02       4    7    1         0.1163309328E+00      0.2444524563E+00
          0                 6           2             4    7     1       0.8364584454E-03       4    7    1         0.4396829173E-01      0.9155823613E-01
          0                 7           2             4    7     1       0.3159320255E-03       4    7    1         0.1661174210E-01      0.3429615141E-01
          0                 8           1             4    7     1       0.1192860434E-03       4    7    1         0.6273805339E-02      0.1284799472E-01
          0                 9           1             4    7     1       0.4502359027E-04       4    7    1         0.2368619400E-02      0.4813526782E-02

    ------------------------------------------------
       NWT REQUIRED            9 OUTER ITERATIONS 
       AND A TOTAL OF         16 INNER ITERATIONS.
    ------------------------------------------------

 NO OUTPUT CONTROL FOR STRESS PERIOD   23   TIME STEP   14
 
 SOLVING FOR HEAD 
                                                   Max.-Head-Change                         Max.-Flux-Residual
  Residual-Control   Outer-Iter.   Inner-Iter.     Column Row Layer    Maximum-Head-Change  Column Row Layer    Maximum-Flux-Residual          L2-NORM 
          0                 1           2             4    7     1       0.1061216935E+00       4    7    1         0.5574826292E+01      0.1205083335E+02
          0                 2           2             4    7     1       0.4003845385E-01       4    7    1         0.2107879308E+01      0.4277092942E+01
          0                 3           2             4    7     1       0.1510021270E-01       4    7    1         0.7948468306E+00      0.1587323282E+01
          0                 4           2             4    7     1       0.5692823745E-02       4    7    1         0.2997700662E+00      0.5926792266E+00
          0                 5           2             4    7     1       0.2145444982E-02       4    7    1         0.1130045807E+00      0.2213152147E+00
          0                 6           2             4    7     1       0.8082731361E-03       4    7    1         0.4258473353E-01      0.8265766968E-01
          0                 7           2             4    7     1       0.3044080206E-03       4    7    1         0.1604219275E-01      0.3087559950E-01
          0                 8           1             4    7     1       0.1146085890E-03       4    7    1         0.6041322187E-02      0.1153462045E-01
          0                 9           1             4    7     1       0.4313672380E-04       4    7    1         0.2274388306E-02      0.4309642905E-02

    ------------------------------------------------
       NWT REQUIRED            9 OUTER ITERATIONS 
       AND A TOTAL OF         16 INNER ITERATIONS.
    ------------------------------------------------

 NO OUTPUT CONTROL FOR STRESS PERIOD   23   TIME STEP   15
 
 SOLVING FOR HEAD 
                                                   Max.-Head-Change                         Max.-Flux-Residual
  Residual-Control   Outer-Iter.   Inner-Iter.     Column Row Layer    Maximum-Head-Change  Column Row Layer    Maximum-Flux-Residual          L2-NORM 
          0                 1           2             4    7     1       0.1038969981E+00       4    7    1         0.5459073732E+01      0.1176978796E+02
          0                 2           2             4    7     1       0.3918494583E-01       4    7    1         0.2063579081E+01      0.4148418909E+01
          0                 3           2             4    7     1       0.1477323133E-01       4    7    1         0.7778410658E+00      0.1538594489E+01
          0                 4           2             4    7     1       0.5567722820E-02       4    7    1         0.2932580149E+00      0.5745885619E+00
          0                 5           2             4    7     1       0.2097641097E-02       4    7    1         0.1105137455E+00      0.2145946570E+00
          0                 6           2             4    7     1       0.7900258197E-03       4    7    1         0.4163316966E-01      0.8012034017E-01
          0                 7           2             4    7     1       0.2974493450E-03       4    7    1         0.1567904767E-01      0.2992083568E-01
          0                 8           1             4    7     1       0.1119570975E-03       4    7    1         0.5902861856E-02      0.1117530927E-01
          0                 9           1             4    7     1       0.4212717683E-04       4    7    1         0.2221639201E-02      0.4174434137E-02

    ------------------------------------------------
       NWT REQUIRED            9 OUTER ITERATIONS 
       AND A TOTAL OF         16 INNER ITERATIONS.
    ------------------------------------------------

 NO OUTPUT CONTROL FOR STRESS PERIOD   23   TIME STEP   16
 
 SOLVING FOR HEAD 
                                                   Max.-Head-Change                         Max.-Flux-Residual
  Residual-Control   Outer-Iter.   Inner-Iter.     Column Row Layer    Maximum-Head-Change  Column Row Layer    Maximum-Flux-Residual          L2-NORM 
          0                 1           2             4    7     1       0.1016805294E+00       4    7    1         0.5343496810E+01      0.1152173763E+02
          0                 2           2             4    7     1       0.3833718456E-01       4    7    1         0.2019467964E+01      0.4031153403E+01
          0                 3           2             4    7     1       0.1444946170E-01       4    7    1         0.7609606926E+00      0.1493435734E+01
          0                 4           2             4    7     1       0.5444228898E-02       4    7    1         0.2868140976E+00      0.5575764531E+00
          0                 5           2             4    7     1       0.2050588654E-02       4    7    1         0.1080564584E+00      0.2081872226E+00
          0                 6           2             4    7     1       0.7721163383E-03       4    7    1         0.4069712432E-01      0.7774693929E-01
          0                 7           2             4    7     1       0.2906388471E-03       4    7    1         0.1532283583E-01      0.2903817459E-01
          0                 8           1             4    7     1       0.1093694673E-03       4    7    1         0.5767429866E-02      0.1084694908E-01
          0                 9           1             4    7     1       0.4114478993E-04       4    7    1         0.2170191201E-02      0.4052215815E-02

    ------------------------------------------------
       NWT REQUIRED            9 OUTER ITERATIONS 
       AND A TOTAL OF         16 INNER ITERATIONS.
    ------------------------------------------------

 NO OUTPUT CONTROL FOR STRESS PERIOD   23   TIME STEP   17
 
 SOLVING FOR HEAD 
                                                   Max.-Head-Change                         Max.-Flux-Residual
  Residual-Control   Outer-Iter.   Inner-Iter.     Column Row Layer    Maximum-Head-Change  Column Row Layer    Maximum-Flux-Residual          L2-NORM 
          0                 1           2             4    7     1       0.9940034039E-01       4    7    1         0.5228569443E+01      0.1117968047E+02
          0                 2           2             4    7     1       0.3740908171E-01       4    7    1         0.1973690423E+01      0.3842723610E+01
          0                 3           2             4    7     1       0.1406577282E-01       4    7    1         0.7422288015E+00      0.1411130092E+01
          0                 4           2             4    7     1       0.5284327653E-02       4    7    1         0.2790503546E+00      0.5231603689E+00
          0                 5           2             4    7     1       0.1983774214E-02       4    7    1         0.1048167364E+00      0.1940772682E+00
          0                 6           2             4    7     1       0.7442239812E-03       4    7    1         0.3934297718E-01      0.7204394453E-01
          0                 7           2             4    7     1       0.2790312314E-03       4    7    1         0.1475770318E-01      0.2675758894E-01
          0                 8           1             4    7     1       0.1045599275E-03       4    7    1         0.5532405078E-02      0.9942413140E-02
          0                 9           1             4    7     1       0.3916190345E-04       4    7    1         0.2072896803E-02      0.3695755690E-02

    ------------------------------------------------
       NWT REQUIRED            9 OUTER ITERATIONS 
       AND A TOTAL OF         16 INNER ITERATIONS.
    ------------------------------------------------

 NO OUTPUT CONTROL FOR STRESS PERIOD   23   TIME STEP   18
 
 SOLVING FOR HEAD 
                                                   Max.-Head-Change                         Max.-Flux-Residual
  Residual-Control   Outer-Iter.   Inner-Iter.     Column Row Layer    Maximum-Head-Change  Column Row Layer    Maximum-Flux-Residual          L2-NORM 
          0                 1           2             4    7     1       0.9648135260E-01       4    7    1         0.5104713708E+01      0.1030425307E+02
          0                 2           2             4    7     1       0.3604175029E-01       4    7    1         0.1912757200E+01      0.3449964995E+01
          0                 3           2             4    7     1       0.1345275569E-01       4    7    1         0.7139803069E+00      0.1257025018E+01
          0                 4           2             4    7     1       0.5017632896E-02       4    7    1         0.2664784194E+00      0.4634275980E+00
          0                 5           2             4    7     1       0.1870264581E-02       4    7    1         0.9937559684E-01      0.1709497371E+00
          0                 6           2             4    7     1       0.6967132695E-03       4    7    1         0.3703617104E-01      0.6309817589E-01
          0                 7           2             4    7     1       0.2594052614E-03       4    7    1         0.1379509996E-01      0.2330115620E-01
          0                 8           1             4    7     1       0.9653856807E-04       4    7    1         0.5135737571E-02      0.8608496423E-02

    ------------------------------------------------
       NWT REQUIRED            8 OUTER ITERATIONS 
       AND A TOTAL OF         15 INNER ITERATIONS.
    ------------------------------------------------

 NO OUTPUT CONTROL FOR STRESS PERIOD   23   TIME STEP   19
 
 SOLVING FOR HEAD 
                                                   Max.-Head-Change                         Max.-Flux-Residual
  Residual-Control   Outer-Iter.   Inner-Iter.     Column Row Layer    Maximum-Head-Change  Column Row Layer    Maximum-Flux-Residual          L2-NORM 
          0                 1           2             4    7     1       0.9306734618E-01       4    7    1         0.4933050970E+01      0.9876929192E+01
          0                 2           2             4    7     1       0.3469098314E-01       4    7    1         0.1844178098E+01      0.3260870257E+01
          0                 3           2             4    7     1       0.1292460982E-01       4    7    1         0.6869131942E+00      0.1187287197E+01
          0                 4           2             4    7     1       0.4813031599E-02       4    7    1         0.2559200910E+00      0.4380815580E+00
          0                 5           2             4    7     1       0.1729740061E-02       4    7    1         0.9191820107E-01      0.1597547658E+00
          0                 6           2             4    7     1       0.6066452680E-03       4    7    1         0.3219598280E-01      0.5782337782E-01
          0                 7           2             4    6     1       0.2180098912E-03       4    6    1         0.1157679840E-01      0.2095695537E-01
          0                 8           1             4    6     1       0.8122700635E-04       4    6    1         0.4317716856E-02      0.7604578297E-02

    ------------------------------------------------
       NWT REQUIRED            8 OUTER ITERATIONS 
       AND A TOTAL OF         15 INNER ITERATIONS.
    ------------------------------------------------

 NO OUTPUT CONTROL FOR STRESS PERIOD   23   TIME STEP   20
 
 SOLVING FOR HEAD 
                                                   Max.-Head-Change                         Max.-Flux-Residual
  Residual-Control   Outer-Iter.   Inner-Iter.     Column Row Layer    Maximum-Head-Change  Column Row Layer    Maximum-Flux-Residual          L2-NORM 
          0                 1           2             4    6     1       0.7671706762E-01       4    6    1         0.4067533469E+01      0.8552832888E+01
          0                 2           2             4    6     1       0.2837630786E-01       4    6    1         0.1520076401E+01      0.2613963334E+01
          0                 3           2             4    6     1       0.1048378590E-01       4    6    1         0.5607742741E+00      0.9204974037E+00
          0                 4           2             4    6     1       0.3869251589E-02       4    6    1         0.2072143435E+00      0.3309717691E+00
          0                 5           2             4    6     1       0.1426669742E-02       4    6    1         0.7645664110E-01      0.1191198794E+00
          0                 6           2             4    6     1       0.5255864796E-03       4    6    1         0.2818563390E-01      0.4291220731E-01
          0                 7           2             4    6     1       0.1934735840E-03       4    6    1         0.1038173084E-01      0.1547108203E-01
          0                 8           1             4    6     1       0.7116807830E-04       4    6    1         0.3820985849E-02      0.5581910424E-02

    ------------------------------------------------
       NWT REQUIRED            8 OUTER ITERATIONS 
       AND A TOTAL OF         15 INNER ITERATIONS.
    ------------------------------------------------

 NO OUTPUT CONTROL FOR STRESS PERIOD   23   TIME STEP   21
 
 SOLVING FOR HEAD 
                                                   Max.-Head-Change                         Max.-Flux-Residual
  Residual-Control   Outer-Iter.   Inner-Iter.     Column Row Layer    Maximum-Head-Change  Column Row Layer    Maximum-Flux-Residual          L2-NORM 
          0                 1           2             4    6     1       0.7349931507E-01       4    6    1         0.3899251740E+01      0.8317472790E+01
          0                 2           2             4    6     1       0.2715016152E-01       4    6    1         0.1456088440E+01      0.2501204420E+01
          0                 3           2             4    6     1       0.1001936276E-01       4    6    1         0.5363807058E+00      0.8792662176E+00
          0                 4           2             4    6     1       0.3703787788E-02       4    6    1         0.1983539445E+00      0.3163343961E+00
          0                 5           2             4    6     1       0.1365812611E-02       4    6    1         0.7318701621E-01      0.1139035970E+00
          0                 6           2             4    6     1       0.5032872838E-03       4    6    1         0.2698414663E-01      0.4105040608E-01
          0                 7           2             4    6     1       0.1853298634E-03       4    6    1         0.9941827193E-02      0.1480576194E-01
          0                 8           1             4    6     1       0.6820278791E-04       4    6    1         0.3660443695E-02      0.5343943779E-02

    ------------------------------------------------
       NWT REQUIRED            8 OUTER ITERATIONS 
       AND A TOTAL OF         15 INNER ITERATIONS.
    ------------------------------------------------

 NO OUTPUT CONTROL FOR STRESS PERIOD   23   TIME STEP   22
 
 SOLVING FOR HEAD 
                                                   Max.-Head-Change                         Max.-Flux-Residual
  Residual-Control   Outer-Iter.   Inner-Iter.     Column Row Layer    Maximum-Head-Change  Column Row Layer    Maximum-Flux-Residual          L2-NORM 
          0                 1           2             4    6     1       0.7051113116E-01       4    6    1         0.3733628113E+01      0.8220438425E+01
          0                 2           2             4    6     1       0.2588843308E-01       4    6    1         0.1386700032E+01      0.2441389572E+01
          0                 3           2             4    6     1       0.9005459734E-02       4    6    1         0.4808540108E+00      0.8385266619E+00
          0                 4           2             4    6     1       0.3134066498E-02       4    6    1         0.1673701989E+00      0.2948488938E+00
          0                 5           2             4    6     1       0.1091201544E-02       4    6    1         0.5825053386E-01      0.1037086592E+00
          0                 6           2             4    6     1       0.3800923323E-03       4    6    1         0.2028349578E-01      0.3648634330E-01
          0                 7           2             4    6     1       0.1324505666E-03       4    6    1         0.7065909567E-02      0.1283805739E-01
          0                 8           1             4    6     1       0.4617351994E-04       4    6    1         0.2462480360E-02      0.4517737159E-02

    ------------------------------------------------
       NWT REQUIRED            8 OUTER ITERATIONS 
       AND A TOTAL OF         15 INNER ITERATIONS.
    ------------------------------------------------

 NO OUTPUT CONTROL FOR STRESS PERIOD   23   TIME STEP   23
 
 SOLVING FOR HEAD 
                                                   Max.-Head-Change                         Max.-Flux-Residual
  Residual-Control   Outer-Iter.   Inner-Iter.     Column Row Layer    Maximum-Head-Change  Column Row Layer    Maximum-Flux-Residual          L2-NORM 
          0                 1           2             4    7     1       0.5735775551E-01       4    7    1         0.3018894461E+01      0.7550235139E+01
          0                 2           2             4    7     1       0.2025241664E-01       4    7    1         0.1070524490E+01      0.2097177094E+01
          0                 3           2             4    7     1       0.7151282252E-02       4    7    1         0.3775626017E+00      0.7150408925E+00
          0                 4           2             4    7     1       0.2525262723E-02       4    7    1         0.1333495439E+00      0.2516374959E+00
          0                 5           2             4    7     1       0.8917405541E-03       4    7    1         0.4708763909E-01      0.8859480417E-01
          0                 6           2             4    7     1       0.3149012994E-03       4    7    1         0.1662807166E-01      0.3119772223E-01
          0                 7           1             4    7     1       0.1112012853E-03       4    7    1         0.5871895629E-02      0.1098665858E-01
          0                 8           1             4    7     1       0.3926816863E-04       4    7    1         0.2073544502E-02      0.3869347744E-02

    ------------------------------------------------
       NWT REQUIRED            8 OUTER ITERATIONS 
       AND A TOTAL OF         14 INNER ITERATIONS.
    ------------------------------------------------

 NO OUTPUT CONTROL FOR STRESS PERIOD   23   TIME STEP   24
 
 SOLVING FOR HEAD 
                                                   Max.-Head-Change                         Max.-Flux-Residual
  Residual-Control   Outer-Iter.   Inner-Iter.     Column Row Layer    Maximum-Head-Change  Column Row Layer    Maximum-Flux-Residual          L2-NORM 
          0                 1           2             4    7     1       0.5600227683E-01       4    7    1         0.2946082264E+01      0.7485120897E+01
          0                 2           2             4    7     1       0.1978299603E-01       4    7    1         0.1045373086E+01      0.2062059356E+01
          0                 3           2             4    7     1       0.6988511404E-02       4    7    1         0.3688460967E+00      0.7021828261E+00
          0                 4           2             4    7     1       0.2468755440E-02       4    7    1         0.1303265133E+00      0.2471181752E+00
          0                 5           2             4    7     1       0.8721017562E-03       4    7    1         0.4603788381E-01      0.8700779250E-01
          0                 6           2             4    7     1       0.3080688158E-03       4    7    1         0.1626314592E-01      0.3064018376E-01
          0                 7           1             4    7     1       0.1088218874E-03       4    7    1         0.5744906084E-02      0.1079070494E-01
          0                 8           1             4    7     1       0.3843879028E-04       4    7    1         0.2029311163E-02      0.3800452371E-02

    ------------------------------------------------
       NWT REQUIRED            8 OUTER ITERATIONS 
       AND A TOTAL OF         14 INNER ITERATIONS.
    ------------------------------------------------

 NO OUTPUT CONTROL FOR STRESS PERIOD   23   TIME STEP   25
 
 SOLVING FOR HEAD 
                                                   Max.-Head-Change                         Max.-Flux-Residual
  Residual-Control   Outer-Iter.   Inner-Iter.     Column Row Layer    Maximum-Head-Change  Column Row Layer    Maximum-Flux-Residual          L2-NORM 
          0                 1           2             4    7     1       0.5471775407E-01       4    7    1         0.2877168452E+01      0.7422612469E+01
          0                 2           2             4    7     1       0.1933747355E-01       4    7    1         0.1021529594E+01      0.2028323026E+01
          0                 3           2             4    7     1       0.6833806521E-02       4    7    1         0.3605705930E+00      0.6898144280E+00
          0                 4           2             4    7     1       0.2414976242E-02       4    7    1         0.1274523809E+00      0.2427674609E+00
          0                 5           2             4    7     1       0.8533875666E-03       4    7    1         0.4503851394E-01      0.8547898151E-01
          0                 6           2             4    7     1       0.3015503425E-03       4    7    1         0.1591530491E-01      0.3010278247E-01
          0                 7           1             4    7     1       0.1065493450E-03       4    7    1         0.5623721411E-02      0.1060173429E-01
          0                 8           1             4    7     1       0.3764584486E-04       4    7    1         0.1987054068E-02      0.3733983384E-02

    ------------------------------------------------
       NWT REQUIRED            8 OUTER ITERATIONS 
       AND A TOTAL OF         14 INNER ITERATIONS.
    ------------------------------------------------

 NO OUTPUT CONTROL FOR STRESS PERIOD   23   TIME STEP   26
 
 SOLVING FOR HEAD 
                                                   Max.-Head-Change                         Max.-Flux-Residual
  Residual-Control   Outer-Iter.   Inner-Iter.     Column Row Layer    Maximum-Head-Change  Column Row Layer    Maximum-Flux-Residual          L2-NORM 
          0                 1           2             4    7     1       0.5349785614E-01       4    7    1         0.2811798596E+01      0.7362443264E+01
          0                 2           2             4    7     1       0.1891377174E-01       4    7    1         0.9988779747E+00      0.1995868458E+01
          0                 3           2             4    7     1       0.6686484856E-02       4    7    1         0.3526979881E+00      0.6779028837E+00
          0                 4           2             4    7     1       0.2363700384E-02       4    7    1         0.1247146206E+00      0.2385746136E+00
          0                 5           2             4    7     1       0.8355238803E-03       4    7    1         0.4408540461E-01      0.8400483299E-01
          0                 6           2             4    7     1       0.2953214011E-03       4    7    1         0.1558318802E-01      0.2958434680E-01
          0                 7           1             4    7     1       0.1043755593E-03       4    7    1         0.5507892046E-02      0.1041935622E-01
          0                 8           1             4    7     1       0.3688664741E-04       4    7    1         0.1946624397E-02      0.3669809552E-02

    ------------------------------------------------
       NWT REQUIRED            8 OUTER ITERATIONS 
       AND A TOTAL OF         14 INNER ITERATIONS.
    ------------------------------------------------

 NO OUTPUT CONTROL FOR STRESS PERIOD   23   TIME STEP   27
 
 SOLVING FOR HEAD 
                                                   Max.-Head-Change                         Max.-Flux-Residual
  Residual-Control   Outer-Iter.   Inner-Iter.     Column Row Layer    Maximum-Head-Change  Column Row Layer    Maximum-Flux-Residual          L2-NORM 
          0                 1           2             4    7     1       0.5233726634E-01       4    7    1         0.2749675258E+01      0.7304387800E+01
          0                 2           2             4    7     1       0.1851014173E-01       4    7    1         0.9773207613E+00      0.1964633438E+01
          0                 3           2             4    7     1       0.6545969925E-02       4    7    1         0.3451961844E+00      0.6664173277E+00
          0                 4           2             4    7     1       0.2314737464E-02       4    7    1         0.1221026483E+00      0.2345293096E+00
          0                 5           2             4    7     1       0.8184476835E-03       4    7    1         0.4317505842E-01      0.8258190302E-01
          0                 6           2             4    7     1       0.2893610940E-03       4    7    1         0.1526563721E-01      0.2908372289E-01
          0                 7           1             4    7     1       0.1022935829E-03       4    7    1         0.5397033721E-02      0.1024318241E-01
          0                 8           1             4    7     1       0.3615888518E-04       4    7    1         0.1907894402E-02      0.3607800078E-02

    ------------------------------------------------
       NWT REQUIRED            8 OUTER ITERATIONS 
       AND A TOTAL OF         14 INNER ITERATIONS.
    ------------------------------------------------

 NO OUTPUT CONTROL FOR STRESS PERIOD   23   TIME STEP   28
 
 SOLVING FOR HEAD 
                                                   Max.-Head-Change                         Max.-Flux-Residual
  Residual-Control   Outer-Iter.   Inner-Iter.     Column Row Layer    Maximum-Head-Change  Column Row Layer    Maximum-Flux-Residual          L2-NORM 
          0                 1           2             4    7     1       0.5123141596E-01       4    7    1         0.2690543342E+01      0.7248190638E+01
          0                 2           2             4    7     1       0.1812508199E-01       4    7    1         0.9567741493E+00      0.1934450423E+01
          0                 3           2             4    7     1       0.6411767809E-02       4    7    1         0.3380376365E+00      0.6553327415E+00
          0                 4           2             4    7     1       0.2267924740E-02       4    7    1         0.1196074005E+00      0.2306235715E+00
          0                 5           2             4    7     1       0.8021052612E-03       4    7    1         0.4230448781E-01      0.8120754947E-01
          0                 6           2             4    7     1       0.2836516597E-03       4    7    1         0.1496166601E-01      0.2860002883E-01
          0                 7           1             4    7     1       0.1002975336E-03       4    7    1         0.5290820120E-02      0.1007291725E-01
          0                 8           1             4    7     1       0.3546060491E-04       4    7    1         0.1870755901E-02      0.3547855338E-02

    ------------------------------------------------
       NWT REQUIRED            8 OUTER ITERATIONS 
       AND A TOTAL OF         14 INNER ITERATIONS.
    ------------------------------------------------

 NO OUTPUT CONTROL FOR STRESS PERIOD   23   TIME STEP   29
 
 SOLVING FOR HEAD 
                                                   Max.-Head-Change                         Max.-Flux-Residual
  Residual-Control   Outer-Iter.   Inner-Iter.     Column Row Layer    Maximum-Head-Change  Column Row Layer    Maximum-Flux-Residual          L2-NORM 
          0                 1           2             4    7     1       0.5017573578E-01       4    7    1         0.2634148185E+01      0.7193695653E+01
          0                 2           2             4    7     1       0.1775707891E-01       4    7    1         0.9371542786E+00      0.1905335442E+01
          0                 3           2             4    7     1       0.6283375703E-02       4    7    1         0.3311945150E+00      0.6446235286E+00
          0                 4           2             4    7     1       0.2223094833E-02       4    7    1         0.1172196293E+00      0.2268484955E+00
          0                 5           2             4    7     1       0.7864407752E-03       4    7    1         0.4147061268E-01      0.7987874813E-01
          0                 6           2             4    7     1       0.2781744305E-03       4    7    1         0.1467024638E-01      0.2813223612E-01
          0                 7           1             4    7     1       0.9838115551E-04       4    7    1         0.5188907356E-02      0.9908209381E-02

    ------------------------------------------------
       NWT REQUIRED            7 OUTER ITERATIONS 
       AND A TOTAL OF         13 INNER ITERATIONS.
    ------------------------------------------------

 NO OUTPUT CONTROL FOR STRESS PERIOD   23   TIME STEP   30



 STREAM LISTING     PERIOD     23   STEP       30

 LAYER ROW COL. STREAM  RCH.  FLOW INTO     FLOW TO   FLOW OUT OF   OVRLND.     DIRECT     STREAM       STREAM     STREAM     STREAM   STREAMBED  STREAMBED
                SEG.NO.  NO.  STRM. RCH.    AQUIFER    STRM. RCH.    RUNOFF     PRECIP       ET          HEAD       DEPTH      WIDTH   CONDCTNC.   GRADIENT

   1    1    1     1     1    8.2501E+00  1.3178E-01   8.1183E+00  0.000E+00  0.000E+00  0.000E+00  1.09389E+03  8.424E-01  7.622E+00  3.430E-02  1.281E+00
   1    2    2     1     2    8.1183E+00  2.0241E-01   7.9159E+00  0.000E+00  0.000E+00  0.000E+00  1.08890E+03  8.367E-01  7.537E+00  5.276E-02  1.279E+00
   1    3    3     1     3    7.9159E+00  1.7099E-01   7.7449E+00  0.000E+00  0.000E+00  0.000E+00  1.08325E+03  8.302E-01  7.440E+00  4.464E-02  1.277E+00
   1    3    4     1     4    7.7449E+00  1.5612E-01   7.5888E+00  0.000E+00  0.000E+00  0.000E+00  1.07823E+03  8.244E-01  7.355E+00  4.082E-02  1.275E+00
   1    4    5     2     1    5.5888E+00  2.7178E-01   5.3170E+00  0.000E+00  0.000E+00  0.000E+00  1.07242E+03  4.843E-01  1.200E+01  7.800E-02  1.161E+00
   1    5    6     2     2    5.3170E+00  2.0828E-01   5.1088E+00  0.000E+00  0.000E+00  0.000E+00  1.06698E+03  4.714E-01  1.200E+01  6.000E-02  1.157E+00
   1    6    6     2     3    5.1088E+00  2.0760E-01   4.9012E+00  0.000E+00  0.000E+00  0.000E+00  1.06225E+03  4.600E-01  1.200E+01  6.000E-02  1.153E+00
   1    7    6     2     4    4.9012E+00  2.0691E-01   4.6943E+00  0.000E+00  0.000E+00  0.000E+00  1.05752E+03  4.485E-01  1.200E+01  6.000E-02  1.150E+00
   1    8    6     2     5    4.6943E+00  2.0621E-01   4.4880E+00  0.000E+00  0.000E+00  0.000E+00  1.05280E+03  4.368E-01  1.200E+01  6.000E-02  1.146E+00
   1    3    5     3     1    2.0000E+00  2.8252E-01   1.7175E+00  0.000E+00  0.000E+00  0.000E+00  1.07555E+03  1.909E+00  9.636E+00  7.227E-02  1.955E+00
   1    3    6     3     2    1.7175E+00  2.4905E-01   1.4684E+00  0.000E+00  0.000E+00  0.000E+00  1.07264E+03  1.727E+00  8.909E+00  6.682E-02  1.864E+00
   1    3    7     3     3    1.4684E+00  1.9718E-01   1.2712E+00  0.000E+00  0.000E+00  0.000E+00  1.06987E+03  1.555E+00  8.218E+00  5.547E-02  1.777E+00
   1    4    8     3     4    1.2712E+00  2.2567E-01   1.0456E+00  0.000E+00  0.000E+00  0.000E+00  1.06682E+03  1.364E+00  7.455E+00  6.709E-02  1.682E+00
   1    5    8     3     5    1.0456E+00  1.5790E-01   8.8768E-01  0.000E+00  0.000E+00  0.000E+00  1.06362E+03  1.164E+00  6.655E+00  4.991E-02  1.582E+00
   1    6    8     3     6    8.8768E-01  5.5980E-02   8.3170E-01  0.000E+00  0.000E+00  0.000E+00  1.06158E+03  1.036E+00  6.145E+00  1.844E-02  1.518E+00
   1    5   10     4     1    1.0000E+01  9.0919E-02   9.9091E+00  0.000E+00  0.000E+00  0.000E+00  1.07836E+03  6.368E-01  1.000E+01  2.500E-02  1.212E+00
   1    5    9     4     2    9.9091E+00  1.8158E-01   9.7275E+00  0.000E+00  0.000E+00  0.000E+00  1.07154E+03  6.315E-01  1.000E+01  5.000E-02  1.211E+00
   1    6    8     4     3    9.7275E+00  1.2689E-01   9.6006E+00  0.000E+00  0.000E+00  0.000E+00  1.06381E+03  6.256E-01  1.000E+01  3.500E-02  1.209E+00
   1    6    8     5     1    1.0432E+01  2.2686E-01   1.0205E+01  0.000E+00  0.000E+00  0.000E+00  1.05868E+03  6.790E-01  1.542E+01  6.166E-02  1.226E+00
   1    7    7     5     2    1.0205E+01  2.7894E-01   9.9265E+00  0.000E+00  0.000E+00  0.000E+00  1.05417E+03  6.732E-01  1.519E+01  7.594E-02  1.224E+00
   1    8    7     5     3    9.9265E+00  1.9221E-01   9.7343E+00  0.000E+00  0.000E+00  0.000E+00  1.04992E+03  6.676E-01  1.497E+01  5.241E-02  1.223E+00
   1    8    6     5     4    9.7343E+00  1.3577E-01   9.5985E+00  0.000E+00  0.000E+00  0.000E+00  1.04691E+03  6.637E-01  1.482E+01  3.706E-02  1.221E+00
   1    9    6     6     1    1.4087E+01  2.3167E-01   1.3855E+01  0.000E+00  0.000E+00  0.000E+00  1.04359E+03  8.612E-01  1.200E+01  6.000E-02  1.287E+00
   1   10    7     6     2    1.3855E+01  2.3116E-01   1.3624E+01  0.000E+00  0.000E+00  0.000E+00  1.03903E+03  8.526E-01  1.200E+01  6.000E-02  1.284E+00
   1   11    7     6     3    1.3624E+01  2.3064E-01   1.3393E+01  0.000E+00  0.000E+00  0.000E+00  1.03448E+03  8.440E-01  1.200E+01  6.000E-02  1.281E+00
   1   12    7     6     4    1.3393E+01  2.3012E-01   1.3163E+01  0.000E+00  0.000E+00  0.000E+00  1.02993E+03  8.353E-01  1.200E+01  6.000E-02  1.278E+00
   1   13    7     6     5    1.3163E+01  7.4300E-03   1.3156E+01  0.000E+00  0.000E+00  0.000E+00  1.02674E+03  8.308E-01  1.200E+01  2.400E-02  1.032E-01
   1   14    9     7     1    1.5000E+02  1.3912E+00   1.4861E+02  0.000E+00  0.000E+00  0.000E+00  1.03987E+03  2.288E+00  5.529E+01  5.593E-01  8.292E-01
   1   13    8     7     2    1.4861E+02  2.0308E+00   1.4658E+02  0.000E+00  0.000E+00  0.000E+00  1.03478E+03  2.278E+00  5.525E+01  6.147E-01  1.101E+00
   1   13    7     7     3    1.4658E+02  1.8186E+00   1.4476E+02  0.000E+00  0.000E+00  0.000E+00  1.02969E+03  2.268E+00  5.521E+01  5.583E-01  1.086E+00
   1   13    6     8     1    1.5791E+02  1.2025E+00   1.5671E+02  0.000E+00  0.000E+00  0.000E+00  1.02474E+03  2.868E+00  4.158E+01  4.237E-01  9.460E-01
   1   13    5     8     2    1.5671E+02  4.5534E-01   1.5626E+02  0.000E+00  0.000E+00  0.000E+00  1.01849E+03  2.862E+00  4.150E+01  4.229E-01  3.589E-01
   1   13    4     8     3    1.5626E+02 -1.4460E+00   1.5770E+02  0.000E+00  0.000E+00  0.000E+00  1.01224E+03  2.865E+00  4.155E+01  4.234E+00 -1.138E-01
   1   13    3     8     4    1.5770E+02 -3.1792E+00   1.6088E+02  0.000E+00  0.000E+00  0.000E+00  1.00601E+03  2.881E+00  4.178E+01  4.257E+00 -2.489E-01
   1   13    2     8     5    1.6088E+02 -2.4693E+00   1.6335E+02  0.000E+00  0.000E+00  0.000E+00  9.99775E+02  2.900E+00  4.205E+01  4.285E+00 -1.921E-01
   1   13    1     8     6    1.6335E+02 -1.9528E+00   1.6530E+02  0.000E+00  0.000E+00  0.000E+00  9.94790E+02  2.915E+00  4.227E+01  2.584E+00 -2.519E-01
   1    8    6     9     1    0.0000E+00  0.0000E+00   0.0000E+00  0.000E+00  0.000E+00  0.000E+00  1.07875E+03  0.000E+00  4.000E+00  0.000E+00  1.000E+00
   1    8    5     9     2    0.0000E+00  0.0000E+00   0.0000E+00  0.000E+00  0.000E+00  0.000E+00  1.07825E+03  0.000E+00  4.000E+00  0.000E+00  1.000E+00





UNSATURATED ZONE PACKAGE VOLUMETRIC BUDGET FOR  TIME STEP    30 STRESS PERIOD   23
  ------------------------------------------------------------------------------



     CUMULATIVE VOLUMES      L**3       RATES FOR THIS TIME STEP      L**3/T
     ------------------                 ------------------------

           IN:                                      IN:
           ---                                      ---
        INFILTRATION =  6658606450.6672          INFILTRATION =           0.8475

          OUT:                                     OUT:
          ----                                     ----
              UZF ET =   858652129.2115                UZF ET =           0.8475
        UZF RECHARGE =  5262075100.6938          UZF RECHARGE =          31.3168

            IN - OUT =   537879220.7618              IN - OUT =         -31.3168

          STORAGE:                                 STORAGE:
          --------                                 --------
      STORAGE CHANGE =   538591152.6116        STORAGE CHANGE =         -31.3168

 PERCENT DISCREPANCY IS DIFFERENCE BETWEEN IN-OUT MINUS CHANGE IN STORAGE
 DIVIDED BY THE AVERAGE OF IN AND OUT TIMES 100

 PERCENT DISCREPANCY =          -0.00     PERCENT DISCREPANCY =           0.00






1
  VOLUMETRIC BUDGET FOR AGRICULTURAL FIELDS AT  END OF TIME STEP   30, STRESS PERIOD  23
  ------------------------------------------------------------------------------

     CUMULATIVE VOLUMES      L**3       RATES FOR THIS TIME STEP      L**3/T
     ------------------                 ------------------------

           IN:                                      IN:
           ---                                      ---
               AG WELLS  =  6318206976.0000                 AG WELLS  =           0.0000
      DIVERSION SEGMENTS =   291316640.0000        DIVERSION SEGMENTS =           0.0000
           GW IRRIGATION =           0.0000             GW IRRIGATION =           0.0000
           SW IRRIGATION =           0.0000             SW IRRIGATION =           0.0000
        SYSTEM LOSSES GW =           0.0000          SYSTEM LOSSES GW =           0.0000
        SYSTEM LOSSES SW =           0.0000          SYSTEM LOSSES SW =           0.0000

                TOTAL IN =  6609523712.0000                  TOTAL IN =           0.0000

          OUT:                                     OUT:
          ----                                     ----
               AG WELLS  =           0.0000                 AG WELLS  =           0.0000
      DIVERSION SEGMENTS =           0.0000        DIVERSION SEGMENTS =           0.0000
           GW IRRIGATION =  6318206976.0000             GW IRRIGATION =           0.0000
           SW IRRIGATION =   291322048.0000             SW IRRIGATION =           0.0000
        SYSTEM LOSSES GW =           0.0000          SYSTEM LOSSES GW =           0.0000
        SYSTEM LOSSES SW =           0.0000          SYSTEM LOSSES SW =           0.0000

               TOTAL OUT =  6609528832.0000                 TOTAL OUT =           0.0000

                IN - OUT =       -5120.0000                  IN - OUT =           0.0000

     PERCENT DISCREPANCY =          -0.00         PERCENT DISCREPANCY =           0.00



1
  VOLUMETRIC BUDGET FOR ENTIRE MODEL AT END OF TIME STEP   30, STRESS PERIOD  23
  ------------------------------------------------------------------------------

     CUMULATIVE VOLUMES      L**3       RATES FOR THIS TIME STEP      L**3/T
     ------------------                 ------------------------

           IN:                                      IN:
           ---                                      ---
             STORAGE     =  5761824256.0000               STORAGE     =           6.9104
       CONSTANT HEAD     =           0.0000         CONSTANT HEAD     =           0.0000
     HEAD DEP BOUNDS     =    16707745.0000       HEAD DEP BOUNDS     =           0.2895
      STREAM LEAKAGE     =   697466944.0000        STREAM LEAKAGE     =          11.9931
        UZF RECHARGE     =  5262073856.0000          UZF RECHARGE     =          31.3168
               GW ET     =           0.0000                 GW ET     =           0.0000
     SURFACE LEAKAGE     =           0.0000       SURFACE LEAKAGE     =           0.0000
           AG WELLS      =           0.0000             AG WELLS      =           0.0000

                TOTAL IN = 11738073088.0000                  TOTAL IN =          50.5098

          OUT:                                     OUT:
          ----                                     ----
             STORAGE     =  4838254592.0000               STORAGE     =          41.1673
       CONSTANT HEAD     =           0.0000         CONSTANT HEAD     =           0.0000
     HEAD DEP BOUNDS     =    16687898.0000       HEAD DEP BOUNDS     =           0.2867
      STREAM LEAKAGE     =   564856192.0000        STREAM LEAKAGE     =           9.0474
        UZF RECHARGE     =           0.0000          UZF RECHARGE     =           0.0000
               GW ET     =           0.0000                 GW ET     =           0.0000
     SURFACE LEAKAGE     =           0.0000       SURFACE LEAKAGE     =           0.0000
           AG WELLS      =  6318206976.0000             AG WELLS      =           0.0000

               TOTAL OUT = 11738005504.0000                 TOTAL OUT =          50.5014

                IN - OUT =       67584.0000                  IN - OUT =       8.4648E-03

     PERCENT DISCREPANCY =           0.00         PERCENT DISCREPANCY =           0.02






         TIME SUMMARY AT END OF TIME STEP   30 IN STRESS PERIOD   23
                    SECONDS     MINUTES      HOURS       DAYS        YEARS
                    -----------------------------------------------------------
   TIME STEP LENGTH  87667.      1461.1      24.352      1.0147     2.77799E-03
 STRESS PERIOD TIME 2.63000E+06  43833.      730.56      30.440     8.33397E-02
         TOTAL TIME 5.79467E+07 9.65778E+05  16096.      670.68      1.8362    
1
1
                            STRESS PERIOD NO.   24, LENGTH =   2630000.    
                            -----------------------------------------------

                              NUMBER OF TIME STEPS =    30

                               MULTIPLIER FOR DELT =     1.000

                            INITIAL TIME STEP SIZE =   87666.66    

 REUSING NON-PARAMETER GHB CELLS FROM LAST STRESS PERIOD

      2 GHB CELLS

 REUSING STREAM SEGMENT DATA FROM LAST STRESS PERIOD



            AREAL INFILTRATION RATE
 READING ON UNIT   19 WITH FORMAT: (FREE)              

            1           2           3           4           5           6           7           8           9          10
 ........................................................................................................................
   1   1.0000E-10  2.0000E-10   0.000       0.000       0.000       0.000       0.000       0.000       0.000       0.000    
   2   2.0000E-10  1.0000E-10  2.0000E-10   0.000       0.000      8.0000E-10  8.0000E-10  5.0000E-10   0.000       0.000    
   3    0.000      5.0000E-10  1.0000E-10  1.0000E-10  8.0000E-10  8.0000E-10  5.0000E-10  5.0000E-10   0.000       0.000    
   4   8.0000E-10  5.0000E-10  1.0000E-10  1.0000E-10  1.0000E-10  1.0000E-10  1.0000E-10  1.0000E-10  2.0000E-10   0.000    
   5   8.0000E-10  5.0000E-10  1.0000E-10  1.0000E-10  1.0000E-10  1.0000E-10  1.0000E-10  1.0000E-10  1.0000E-10  1.0000E-10
   6   8.0000E-10  5.0000E-10  5.0000E-10  2.0000E-10  2.0000E-10  1.0000E-10  1.0000E-10  1.0000E-10  1.0000E-10  5.0000E-10
   7   8.0000E-10  5.0000E-10  5.0000E-10  2.0000E-10  2.0000E-10  1.0000E-10  1.0000E-10  2.0000E-10  2.0000E-10   0.000    
   8    0.000      5.0000E-10  5.0000E-10  2.0000E-10  2.0000E-10  1.0000E-10  1.0000E-10  2.0000E-10  5.0000E-10   0.000    
   9    0.000      5.0000E-10  5.0000E-10  2.0000E-10  2.0000E-10  1.0000E-10  1.0000E-10  2.0000E-10  5.0000E-10   0.000    
  10    0.000      5.0000E-10  5.0000E-10  2.0000E-10  2.0000E-10  1.0000E-10  1.0000E-10  2.0000E-10  5.0000E-10  8.0000E-10
  11    0.000      1.0000E-10  1.0000E-10  1.0000E-10  1.0000E-10  1.0000E-10  1.0000E-10  2.0000E-10  5.0000E-10   0.000    
  12   1.0000E-10  1.0000E-10  1.0000E-10  1.0000E-10  1.0000E-10  1.0000E-10  1.0000E-10  1.0000E-10  2.0000E-10   0.000    
  13   1.0000E-10  1.0000E-10  2.0000E-10  2.0000E-10  2.0000E-10  2.0000E-10  2.0000E-10  1.0000E-10  1.0000E-10   0.000    
  14    0.000      2.0000E-10  5.0000E-10  5.0000E-10  5.0000E-10  5.0000E-10  5.0000E-10  2.0000E-10  1.0000E-10   0.000    
  15    0.000       0.000      8.0000E-10  8.0000E-10  8.0000E-10  8.0000E-10   0.000       0.000       0.000       0.000    

                  ET RATE =  5.000000E-10

 USING ET EXTINCTION DEPTH FROM PREVIOUS STRESS PERIOD. CURRENT PERIOD IS:      24

 USING EXTINCTION WATER CONTENT FROM PREVIOUS STRESS PERIOD. CURRENT PERIOD IS:      24

 USING AIR ENTRY PRESSURE FROM PREVIOUS STRESS PERIOD. CURRENT PERIOD IS:      24

 USING ROOT PRESSURE HEAD FROM PREVIOUS STRESS PERIOD. CURRENT PERIOD IS:      24

 USING ROOT ACTIVITY FROM PREVIOUS STRESS PERIOD. CURRENT PERIOD IS:      24

 PROCESSING AG STRESS PERIOD DATA

 READING AG STRESS PERIOD DATA

 READING IRRIGATION SEGMENT

 READING IRRIGATION WELL

 READING SUPPLEMENTAL WELL

 END PROCESSING AG STRESS PERIOD DATA OPTIONS
 
 SOLVING FOR HEAD 
                                                   Max.-Head-Change                         Max.-Flux-Residual
  Residual-Control   Outer-Iter.   Inner-Iter.     Column Row Layer    Maximum-Head-Change  Column Row Layer    Maximum-Flux-Residual          L2-NORM 
          0                 1           2             4    7     1       0.4916734159E-01       4    7    1         0.2580327155E+01      0.7140646888E+01
          0                 2           2             4    7     1       0.1740519650E-01       4    7    1         0.9184084030E+00      0.1877217997E+01
          0                 3           2             4    7     1       0.6160489752E-02       4    7    1         0.3246496998E+00      0.6342792300E+00
          0                 4           2             4    7     1       0.2180149026E-02       4    7    1         0.1149337761E+00      0.2232008388E+00
          0                 5           2             4    7     1       0.7714221264E-03       4    7    1         0.4067162680E-01      0.7859445869E-01
          0                 6           2             4    7     1       0.2729189587E-03       4    7    1         0.1439079088E-01      0.2768000826E-01
          0                 7           1             4    7     1       0.9654104604E-04       4    7    1         0.5091104245E-02      0.9748949615E-02

    ------------------------------------------------
       NWT REQUIRED            7 OUTER ITERATIONS 
       AND A TOTAL OF         13 INNER ITERATIONS.
    ------------------------------------------------

 NO OUTPUT CONTROL FOR STRESS PERIOD   24   TIME STEP    1
 
 SOLVING FOR HEAD 
                                                   Max.-Head-Change                         Max.-Flux-Residual
  Residual-Control   Outer-Iter.   Inner-Iter.     Column Row Layer    Maximum-Head-Change  Column Row Layer    Maximum-Flux-Residual          L2-NORM 
          0                 1           2             4    7     1       0.4820199724E-01       4    7    1         0.2528847179E+01      0.7088964297E+01
          0                 2           2             4    7     1       0.1706801104E-01       4    7    1         0.9004584724E+00      0.1850014960E+01
          0                 3           2             4    7     1       0.6042630351E-02       4    7    1         0.3183769313E+00      0.6242690786E+00
          0                 4           2             4    7     1       0.2138925381E-02       4    7    1         0.1127409914E+00      0.2196700151E+00
          0                 5           2             4    7     1       0.7569945127E-03       4    7    1         0.3990454049E-01      0.7735103197E-01
          0                 6           2             4    7     1       0.2678666579E-03       4    7    1         0.1412228726E-01      0.2724208451E-01
          0                 7           1             4    7     1       0.9477088688E-04       4    7    1         0.4997067249E-02      0.9594701326E-02

    ------------------------------------------------
       NWT REQUIRED            7 OUTER ITERATIONS 
       AND A TOTAL OF         13 INNER ITERATIONS.
    ------------------------------------------------

 NO OUTPUT CONTROL FOR STRESS PERIOD   24   TIME STEP    2
 
 SOLVING FOR HEAD 
                                                   Max.-Head-Change                         Max.-Flux-Residual
  Residual-Control   Outer-Iter.   Inner-Iter.     Column Row Layer    Maximum-Head-Change  Column Row Layer    Maximum-Flux-Residual          L2-NORM 
          0                 1           2             4    7     1       0.4727667150E-01       4    7    1         0.2479539586E+01      0.7039001951E+01
          0                 2           2             4    7     1       0.1674451833E-01       4    7    1         0.8832488267E+00      0.1823703608E+01
          0                 3           2             4    7     1       0.5929464228E-02       4    7    1         0.3123577490E+00      0.6145787188E+00
          0                 4           2             4    7     1       0.2099313093E-02       4    7    1         0.1106351466E+00      0.2162511233E+00
          0                 5           2             4    7     1       0.7431210259E-03       4    7    1         0.3916731532E-01      0.7614679916E-01
          0                 6           2             4    7     1       0.2630052105E-03       4    7    1         0.1386405621E-01      0.2681789530E-01
          0                 7           1             4    7     1       0.9306655883E-04       4    7    1         0.4906569565E-02      0.9445269419E-02

    ------------------------------------------------
       NWT REQUIRED            7 OUTER ITERATIONS 
       AND A TOTAL OF         13 INNER ITERATIONS.
    ------------------------------------------------

 NO OUTPUT CONTROL FOR STRESS PERIOD   24   TIME STEP    3
 
 SOLVING FOR HEAD 
                                                   Max.-Head-Change                         Max.-Flux-Residual
  Residual-Control   Outer-Iter.   Inner-Iter.     Column Row Layer    Maximum-Head-Change  Column Row Layer    Maximum-Flux-Residual          L2-NORM 
          0                 1           2             4    7     1       0.4638892603E-01       4    7    1         0.2432268906E+01      0.6990357947E+01
          0                 2           2             4    7     1       0.1643390937E-01       4    7    1         0.8667346711E+00      0.1798231019E+01
          0                 3           2             4    7     1       0.5820722441E-02       4    7    1         0.3065772762E+00      0.6051946516E+00
          0                 4           2             4    7     1       0.2061222570E-02       4    7    1         0.1086112945E+00      0.2129396070E+00
          0                 5           2             4    7     1       0.7297717582E-03       4    7    1         0.3845830235E-01      0.7498020700E-01
          0                 6           2             4    7     1       0.2583246111E-03       4    7    1         0.1361554702E-01      0.2640690890E-01
          0                 7           1             4    7     1       0.9142470839E-04       4    7    1         0.4819426889E-02      0.9300471387E-02

    ------------------------------------------------
       NWT REQUIRED            7 OUTER ITERATIONS 
       AND A TOTAL OF         13 INNER ITERATIONS.
    ------------------------------------------------

 NO OUTPUT CONTROL FOR STRESS PERIOD   24   TIME STEP    4
 
 SOLVING FOR HEAD 
                                                   Max.-Head-Change                         Max.-Flux-Residual
  Residual-Control   Outer-Iter.   Inner-Iter.     Column Row Layer    Maximum-Head-Change  Column Row Layer    Maximum-Flux-Residual          L2-NORM 
          0                 1           2             4    7     1       0.4553603589E-01       4    7    1         0.2386884940E+01      0.6942939643E+01
          0                 2           2             4    7     1       0.1613527091E-01       4    7    1         0.8508658262E+00      0.1773548530E+01
          0                 3           2             4    7     1       0.5716098241E-02       4    7    1         0.3010186794E+00      0.5960996541E+00
          0                 4           2             4    7     1       0.2025445561E-02       4    7    1         0.1066800665E+00      0.2097309915E+00
          0                 5           2             4    7     1       0.7174888226E-03       4    7    1         0.3779538250E-01      0.7385119570E-01
          0                 6           2             4    7     1       0.2541068417E-03       4    7    1         0.1338794286E-01      0.2600970610E-01
          0                 7           1             4    7     1       0.8997616614E-04       4    7    1         0.4741267949E-02      0.9160747432E-02

    ------------------------------------------------
       NWT REQUIRED            7 OUTER ITERATIONS 
       AND A TOTAL OF         13 INNER ITERATIONS.
    ------------------------------------------------

 NO OUTPUT CONTROL FOR STRESS PERIOD   24   TIME STEP    5
 
 SOLVING FOR HEAD 
                                                   Max.-Head-Change                         Max.-Flux-Residual
  Residual-Control   Outer-Iter.   Inner-Iter.     Column Row Layer    Maximum-Head-Change  Column Row Layer    Maximum-Flux-Residual          L2-NORM 
          0                 1           2             4    7     1       0.4472907597E-01       4    7    1         0.2343339485E+01      0.6896691704E+01
          0                 2           2             4    7     1       0.1585786449E-01       4    7    1         0.8359119963E+00      0.1749651009E+01
          0                 3           2             4    7     1       0.5620719539E-02       4    7    1         0.2958765777E+00      0.5873031159E+00
          0                 4           2             4    7     1       0.1991753077E-02       4    7    1         0.1048958313E+00      0.2066285209E+00
          0                 5           2             4    7     1       0.7056329289E-03       4    7    1         0.3716764037E-01      0.7275818730E-01
          0                 6           2             4    7     1       0.2499340648E-03       4    7    1         0.1316703884E-01      0.2562462744E-01
          0                 7           1             4    7     1       0.8850724685E-04       4    7    1         0.4663515508E-02      0.9025073676E-02

    ------------------------------------------------
       NWT REQUIRED            7 OUTER ITERATIONS 
       AND A TOTAL OF         13 INNER ITERATIONS.
    ------------------------------------------------

 NO OUTPUT CONTROL FOR STRESS PERIOD   24   TIME STEP    6
 
 SOLVING FOR HEAD 
                                                   Max.-Head-Change                         Max.-Flux-Residual
  Residual-Control   Outer-Iter.   Inner-Iter.     Column Row Layer    Maximum-Head-Change  Column Row Layer    Maximum-Flux-Residual          L2-NORM 
          0                 1           2             4    7     1       0.4395785281E-01       4    7    1         0.2302407013E+01      0.6851590105E+01
          0                 2           2             4    7     1       0.1558700213E-01       4    7    1         0.8215520524E+00      0.1726477149E+01
          0                 3           2             4    7     1       0.5525557132E-02       4    7    1         0.2908316719E+00      0.5787625444E+00
          0                 4           2             4    7     1       0.1958309064E-02       4    7    1         0.1031233433E+00      0.2036134638E+00
          0                 5           2             4    7     1       0.6938759338E-03       4    7    1         0.3654466868E-01      0.7169574936E-01
          0                 6           2             4    7     1       0.2457998877E-03       4    7    1         0.1294802417E-01      0.2525024509E-01
          0                 7           1             4    7     1       0.8705317065E-04       4    7    1         0.4586497739E-02      0.8893144386E-02

    ------------------------------------------------
       NWT REQUIRED            7 OUTER ITERATIONS 
       AND A TOTAL OF         13 INNER ITERATIONS.
    ------------------------------------------------

 NO OUTPUT CONTROL FOR STRESS PERIOD   24   TIME STEP    7
 
 SOLVING FOR HEAD 
                                                   Max.-Head-Change                         Max.-Flux-Residual
  Residual-Control   Outer-Iter.   Inner-Iter.     Column Row Layer    Maximum-Head-Change  Column Row Layer    Maximum-Flux-Residual          L2-NORM 
          0                 1           2             3    7     1       0.4329767520E-01       4    7    1         0.2262909642E+01      0.6807523373E+01
          0                 2           2             4    7     1       0.1532539703E-01       4    7    1         0.8076875797E+00      0.1703993446E+01
          0                 3           2             4    7     1       0.5433607412E-02       4    7    1         0.2859587090E+00      0.5704758457E+00
          0                 4           2             4    7     1       0.1925981214E-02       4    7    1         0.1014105328E+00      0.2006876945E+00
          0                 5           2             4    7     1       0.6825071194E-03       4    7    1         0.3594243577E-01      0.7066469340E-01
          0                 6           2             4    7     1       0.2418008438E-03       4    7    1         0.1273622367E-01      0.2488689531E-01
          0                 7           1             4    7     1       0.8564617998E-04       4    7    1         0.4511991911E-02      0.8765094889E-02

    ------------------------------------------------
       NWT REQUIRED            7 OUTER ITERATIONS 
       AND A TOTAL OF         13 INNER ITERATIONS.
    ------------------------------------------------

 NO OUTPUT CONTROL FOR STRESS PERIOD   24   TIME STEP    8
 
 SOLVING FOR HEAD 
                                                   Max.-Head-Change                         Max.-Flux-Residual
  Residual-Control   Outer-Iter.   Inner-Iter.     Column Row Layer    Maximum-Head-Change  Column Row Layer    Maximum-Flux-Residual          L2-NORM 
          0                 1           2             3    7     1       0.4336219176E-01       4    7    1         0.2224765891E+01      0.6764436644E+01
          0                 2           2             4    7     1       0.1507254306E-01       4    7    1         0.7942910453E+00      0.1682167135E+01
          0                 3           2             4    7     1       0.5344698223E-02       4    7    1         0.2812483320E+00      0.5624312545E+00
          0                 4           2             4    7     1       0.1894710851E-02       4    7    1         0.9975421647E-01      0.1978471219E+00
          0                 5           2             4    7     1       0.6715064483E-03       4    7    1         0.3535985612E-01      0.6966359462E-01
          0                 6           2             4    7     1       0.2379300770E-03       4    7    1         0.1253126649E-01      0.2453408126E-01
          0                 7           1             4    7     1       0.8428392467E-04       4    7    1         0.4439871059E-02      0.8640751696E-02

    ------------------------------------------------
       NWT REQUIRED            7 OUTER ITERATIONS 
       AND A TOTAL OF         13 INNER ITERATIONS.
    ------------------------------------------------

 NO OUTPUT CONTROL FOR STRESS PERIOD   24   TIME STEP    9
 
 SOLVING FOR HEAD 
                                                   Max.-Head-Change                         Max.-Flux-Residual
  Residual-Control   Outer-Iter.   Inner-Iter.     Column Row Layer    Maximum-Head-Change  Column Row Layer    Maximum-Flux-Residual          L2-NORM 
          0                 1           2             3    7     1       0.4341511342E-01       4    7    1         0.2187908322E+01      0.6722297492E+01
          0                 2           2             4    7     1       0.1482802364E-01       4    7    1         0.7813397510E+00      0.1660974150E+01
          0                 3           2             4    7     1       0.5258688272E-02       4    7    1         0.2766928438E+00      0.5546200780E+00
          0                 4           2             4    7     1       0.1864449967E-02       4    7    1         0.9815178302E-01      0.1950887258E+00
          0                 5           2             4    7     1       0.6608575771E-03       4    7    1         0.3479604208E-01      0.6869140252E-01
          0                 6           2             4    7     1       0.2341820145E-03       4    7    1         0.1233285034E-01      0.2419143710E-01
          0                 7           1             4    7     1       0.8296450038E-04       4    7    1         0.4370032059E-02      0.8519987266E-02

    ------------------------------------------------
       NWT REQUIRED            7 OUTER ITERATIONS 
       AND A TOTAL OF         13 INNER ITERATIONS.
    ------------------------------------------------

 NO OUTPUT CONTROL FOR STRESS PERIOD   24   TIME STEP   10
 
 SOLVING FOR HEAD 
                                                   Max.-Head-Change                         Max.-Flux-Residual
  Residual-Control   Outer-Iter.   Inner-Iter.     Column Row Layer    Maximum-Head-Change  Column Row Layer    Maximum-Flux-Residual          L2-NORM 
          0                 1           2             3    7     1       0.4345655427E-01       4    7    1         0.2152275317E+01      0.6654793019E+01
          0                 2           2             4    7     1       0.1458952075E-01       4    7    1         0.7687902179E+00      0.1597517472E+01
          0                 3           2             4    7     1       0.5173422000E-02       4    7    1         0.2722411262E+00      0.5242377744E+00
          0                 4           2             4    7     1       0.1833613269E-02       4    7    1         0.9655676700E-01      0.1826205248E+00
          0                 5           2             4    7     1       0.6495698789E-03       4    7    1         0.3421770845E-01      0.6384081644E-01
          0                 6           2             4    7     1       0.2300028449E-03       4    7    1         0.1212060080E-01      0.2235186764E-01
          0                 7           1             4    7     1       0.8140185448E-04       4    7    1         0.4291261235E-02      0.7832181553E-02

    ------------------------------------------------
       NWT REQUIRED            7 OUTER ITERATIONS 
       AND A TOTAL OF         13 INNER ITERATIONS.
    ------------------------------------------------

 NO OUTPUT CONTROL FOR STRESS PERIOD   24   TIME STEP   11
 
 SOLVING FOR HEAD 
                                                   Max.-Head-Change                         Max.-Flux-Residual
  Residual-Control   Outer-Iter.   Inner-Iter.     Column Row Layer    Maximum-Head-Change  Column Row Layer    Maximum-Flux-Residual          L2-NORM 
          0                 1           2             3    7     1       0.4348671157E-01       4    7    1         0.2117516604E+01      0.6568909822E+01
          0                 2           2             4    7     1       0.1433529270E-01       4    7    1         0.7560161884E+00      0.1536244330E+01
          0                 3           2             4    7     1       0.5076760950E-02       4    7    1         0.2674355673E+00      0.5005012852E+00
          0                 4           2             4    7     1       0.1796654660E-02       4    7    1         0.9472448818E-01      0.1738623542E+00
          0                 5           2             4    7     1       0.6354536207E-03       4    7    1         0.3351662059E-01      0.6070667299E-01
          0                 6           2             4    7     1       0.2246358403E-03       4    7    1         0.1185294714E-01      0.2124502751E-01
          0                 7           1             4    7     1       0.7937392350E-04       4    7    1         0.4189609238E-02      0.7444396531E-02

    ------------------------------------------------
       NWT REQUIRED            7 OUTER ITERATIONS 
       AND A TOTAL OF         13 INNER ITERATIONS.
    ------------------------------------------------

 NO OUTPUT CONTROL FOR STRESS PERIOD   24   TIME STEP   12
 
 SOLVING FOR HEAD 
                                                   Max.-Head-Change                         Max.-Flux-Residual
  Residual-Control   Outer-Iter.   Inner-Iter.     Column Row Layer    Maximum-Head-Change  Column Row Layer    Maximum-Flux-Residual          L2-NORM 
          0                 1           2             3    7     1       0.4350529369E-01       4    7    1         0.2081317945E+01      0.6435345056E+01
          0                 2           2             4    7     1       0.1407631978E-01       4    7    1         0.7427253242E+00      0.1491216760E+01
          0                 3           2             4    7     1       0.4982421751E-02       4    7    1         0.2625681617E+00      0.4863424724E+00
          0                 4           2             4    7     1       0.1762476384E-02       4    7    1         0.9295395308E-01      0.1693424039E+00
          0                 5           2             4    7     1       0.6231242119E-03       4    7    1         0.3287588429E-01      0.5921361950E-01
          0                 6           2             4    7     1       0.2202033807E-03       4    7    1         0.1162201266E-01      0.2074042524E-01
          0                 7           1             4    7     1       0.7778487175E-04       4    7    1         0.4106646418E-02      0.7271359815E-02

    ------------------------------------------------
       NWT REQUIRED            7 OUTER ITERATIONS 
       AND A TOTAL OF         13 INNER ITERATIONS.
    ------------------------------------------------

 NO OUTPUT CONTROL FOR STRESS PERIOD   24   TIME STEP   13
 
 SOLVING FOR HEAD 
                                                   Max.-Head-Change                         Max.-Flux-Residual
  Residual-Control   Outer-Iter.   Inner-Iter.     Column Row Layer    Maximum-Head-Change  Column Row Layer    Maximum-Flux-Residual          L2-NORM 
          0                 1           2             3    7     1       0.4351215821E-01       4    7    1         0.2044315272E+01      0.6321486063E+01
          0                 2           2             4    7     1       0.1381617428E-01       4    7    1         0.7292504604E+00      0.1453073390E+01
          0                 3           2             4    7     1       0.4888624087E-02       4    7    1         0.2576910954E+00      0.4741011013E+00
          0                 4           2             4    7     1       0.1728790876E-02       4    7    1         0.9119734321E-01      0.1653705317E+00
          0                 5           2             4    7     1       0.6110644111E-03       4    7    1         0.3224554601E-01      0.5788681606E-01
          0                 6           2             4    7     1       0.2158965552E-03       4    7    1         0.1139648935E-01      0.2028868825E-01
          0                 7           1             4    7     1       0.7624989426E-04       4    7    1         0.4026148510E-02      0.7115698104E-02

    ------------------------------------------------
       NWT REQUIRED            7 OUTER ITERATIONS 
       AND A TOTAL OF         13 INNER ITERATIONS.
    ------------------------------------------------

 NO OUTPUT CONTROL FOR STRESS PERIOD   24   TIME STEP   14
 
 SOLVING FOR HEAD 
                                                   Max.-Head-Change                         Max.-Flux-Residual
  Residual-Control   Outer-Iter.   Inner-Iter.     Column Row Layer    Maximum-Head-Change  Column Row Layer    Maximum-Flux-Residual          L2-NORM 
          0                 1           2             3    7     1       0.4350761914E-01       4    7    1         0.2006965358E+01      0.6298954149E+01
          0                 2           2             4    7     1       0.1357157192E-01       4    7    1         0.7160479085E+00      0.1482828414E+01
          0                 3           2             4    7     1       0.4806314874E-02       4    7    1         0.2531587125E+00      0.4901850595E+00
          0                 4           2             4    7     1       0.1701783561E-02       4    7    1         0.8968115571E-01      0.1723892664E+00
          0                 5           2             4    7     1       0.6024340771E-03       4    7    1         0.3175095627E-01      0.6070769847E-01
          0                 6           2             4    7     1       0.2132215019E-03       4    7    1         0.1123944879E-01      0.2138305429E-01
          0                 7           1             4    7     1       0.7545219159E-04       4    7    1         0.3977846043E-02      0.7531993422E-02

    ------------------------------------------------
       NWT REQUIRED            7 OUTER ITERATIONS 
       AND A TOTAL OF         13 INNER ITERATIONS.
    ------------------------------------------------

 NO OUTPUT CONTROL FOR STRESS PERIOD   24   TIME STEP   15
 
 SOLVING FOR HEAD 
                                                   Max.-Head-Change                         Max.-Flux-Residual
  Residual-Control   Outer-Iter.   Inner-Iter.     Column Row Layer    Maximum-Head-Change  Column Row Layer    Maximum-Flux-Residual          L2-NORM 
          0                 1           2             3    7     1       0.4349281927E-01       5    8    1         0.1974170056E+01      0.6466267960E+01
          0                 2           2             4    7     1       0.1334435674E-01       4    7    1         0.7037451178E+00      0.1515983373E+01
          0                 3           2             4    7     1       0.4728701149E-02       4    7    1         0.2489523721E+00      0.4887879532E+00
          0                 4           2             4    7     1       0.1675196774E-02       4    7    1         0.8824471383E-01      0.1688219697E+00
          0                 5           2             4    7     1       0.5932619327E-03       4    7    1         0.3125845369E-01      0.5873984610E-01
          0                 6           2             4    7     1       0.2100248109E-03       4    7    1         0.1106923542E-01      0.2051519716E-01
          0                 7           1             4    7     1       0.7432447867E-04       4    7    1         0.3918379568E-02      0.7180190171E-02

    ------------------------------------------------
       NWT REQUIRED            7 OUTER ITERATIONS 
       AND A TOTAL OF         13 INNER ITERATIONS.
    ------------------------------------------------

 NO OUTPUT CONTROL FOR STRESS PERIOD   24   TIME STEP   16
 
 SOLVING FOR HEAD 
                                                   Max.-Head-Change                         Max.-Flux-Residual
  Residual-Control   Outer-Iter.   Inner-Iter.     Column Row Layer    Maximum-Head-Change  Column Row Layer    Maximum-Flux-Residual          L2-NORM 
          0                 1           2             3    7     1       0.4346844274E-01       4    7    1         0.1937747523E+01      0.6167556741E+01
          0                 2           2             4    7     1       0.1310871987E-01       4    7    1         0.6917623189E+00      0.1391235823E+01
          0                 3           2             4    7     1       0.4640010203E-02       4    7    1         0.2445124908E+00      0.4523069558E+00
          0                 4           2             4    7     1       0.1641452248E-02       4    7    1         0.8656657617E-01      0.1578624667E+00
          0                 5           2             4    7     1       0.5803890070E-03       4    7    1         0.3061885559E-01      0.5528229518E-01
          0                 6           2             4    7     1       0.2051241441E-03       4    7    1         0.1082518227E-01      0.1938057312E-01
          0                 7           1             4    7     1       0.7246720133E-04       4    7    1         0.3825525692E-02      0.6798101706E-02

    ------------------------------------------------
       NWT REQUIRED            7 OUTER ITERATIONS 
       AND A TOTAL OF         13 INNER ITERATIONS.
    ------------------------------------------------

 NO OUTPUT CONTROL FOR STRESS PERIOD   24   TIME STEP   17
 
 SOLVING FOR HEAD 
                                                   Max.-Head-Change                         Max.-Flux-Residual
  Residual-Control   Outer-Iter.   Inner-Iter.     Column Row Layer    Maximum-Head-Change  Column Row Layer    Maximum-Flux-Residual          L2-NORM 
          0                 1           2             3    7     1       0.4342900648E-01       4    7    1         0.1903866036E+01      0.5883369321E+01
          0                 2           2             4    7     1       0.1257140018E-01       4    7    1         0.6703086383E+00      0.1243311206E+01
          0                 3           2             4    7     1       0.4393727684E-02       4    7    1         0.2338010487E+00      0.3967575784E+00
          0                 4           2             4    7     1       0.1535710962E-02       4    7    1         0.8174485223E-01      0.1379665363E+00
          0                 5           2             4    7     1       0.5368016817E-03       4    7    1         0.2857093444E-01      0.4814479712E-01
          0                 6           2             4    7     1       0.1876487915E-03       4    7    1         0.9987052166E-02      0.1681294727E-01
          0                 7           1             4    7     1       0.6559996094E-04       4    7    1         0.3491202690E-02      0.5873297291E-02

    ------------------------------------------------
       NWT REQUIRED            7 OUTER ITERATIONS 
       AND A TOTAL OF         13 INNER ITERATIONS.
    ------------------------------------------------

 NO OUTPUT CONTROL FOR STRESS PERIOD   24   TIME STEP   18
 
 SOLVING FOR HEAD 
                                                   Max.-Head-Change                         Max.-Flux-Residual
  Residual-Control   Outer-Iter.   Inner-Iter.     Column Row Layer    Maximum-Head-Change  Column Row Layer    Maximum-Flux-Residual          L2-NORM 
          0                 1           2             3    7     1       0.4336027808E-01       4    7    1         0.1837438889E+01      0.5828084368E+01
          0                 2           2             4    7     1       0.1184030785E-01       4    7    1         0.6379808519E+00      0.1176293027E+01
          0                 3           2             4    7     1       0.4085382462E-02       4    7    1         0.2195406002E+00      0.3595598124E+00
          0                 4           2             4    7     1       0.1410627587E-02       4    7    1         0.7579305133E-01      0.1217895646E+00
          0                 5           2             4    7     1       0.4873828580E-03       4    7    1         0.2617321965E-01      0.4170682260E-01
          0                 6           2             4    7     1       0.1684907589E-03       4    7    1         0.9044370022E-02      0.1435476953E-01
          0                 7           1             4    7     1       0.5827761012E-04       4    7    1         0.3127073026E-02      0.4955882070E-02

    ------------------------------------------------
       NWT REQUIRED            7 OUTER ITERATIONS 
       AND A TOTAL OF         13 INNER ITERATIONS.
    ------------------------------------------------

 NO OUTPUT CONTROL FOR STRESS PERIOD   24   TIME STEP   19
 
 SOLVING FOR HEAD 
                                                   Max.-Head-Change                         Max.-Flux-Residual
  Residual-Control   Outer-Iter.   Inner-Iter.     Column Row Layer    Maximum-Head-Change  Column Row Layer    Maximum-Flux-Residual          L2-NORM 
          0                 1           2             3    7     1       0.4325290812E-01       6    7    1         0.1743051614E+01      0.5981350738E+01
          0                 2           2             4    7     1       0.1085635949E-01       4    7    1         0.5921859528E+00      0.1249959137E+01
          0                 3           2             4    7     1       0.3700752849E-02       4    7    1         0.2005767293E+00      0.3790982837E+00
          0                 4           2             4    6     1       0.1277411920E-02       4    7    1         0.6848633550E-01      0.1265074193E+00
          0                 5           2             4    6     1       0.4467829798E-03       4    6    1         0.2377078213E-01      0.4283092589E-01
          0                 6           2             4    6     1       0.1561696202E-03       4    6    1         0.8312824366E-02      0.1461579837E-01
          0                 7           1             4    6     1       0.5455998771E-04       4    6    1         0.2905301202E-02      0.5012359413E-02

    ------------------------------------------------
       NWT REQUIRED            7 OUTER ITERATIONS 
       AND A TOTAL OF         13 INNER ITERATIONS.
    ------------------------------------------------

 NO OUTPUT CONTROL FOR STRESS PERIOD   24   TIME STEP   20
 
 SOLVING FOR HEAD 
                                                   Max.-Head-Change                         Max.-Flux-Residual
  Residual-Control   Outer-Iter.   Inner-Iter.     Column Row Layer    Maximum-Head-Change  Column Row Layer    Maximum-Flux-Residual          L2-NORM 
          0                 1           2             3    7     1       0.4310562681E-01       5    8    1         0.1859702615E+01      0.5841424691E+01
          0                 2           2             4    6     1       0.1023315671E-01       4    7    1         0.5523026628E+00      0.1164380712E+01
          0                 3           2             4    6     1       0.3580456668E-02       4    6    1         0.1902262151E+00      0.3406814350E+00
          0                 4           2             4    6     1       0.1251790866E-02       4    6    1         0.6663174886E-01      0.1119561238E+00
          0                 5           2             4    6     1       0.4373641275E-03       4    6    1         0.2328825385E-01      0.3761642768E-01
          0                 6           2             4    6     1       0.1527265777E-03       4    6    1         0.8135717637E-02      0.1279623840E-01
          0                 7           1             4    6     1       0.5330640915E-04       4    6    1         0.2840632098E-02      0.4386130417E-02

    ------------------------------------------------
       NWT REQUIRED            7 OUTER ITERATIONS 
       AND A TOTAL OF         13 INNER ITERATIONS.
    ------------------------------------------------

 NO OUTPUT CONTROL FOR STRESS PERIOD   24   TIME STEP   21
 
 SOLVING FOR HEAD 
                                                   Max.-Head-Change                         Max.-Flux-Residual
  Residual-Control   Outer-Iter.   Inner-Iter.     Column Row Layer    Maximum-Head-Change  Column Row Layer    Maximum-Flux-Residual          L2-NORM 
          0                 1           2             3    7     1       0.4256065353E-01       4    8    1         0.2015721090E+01      0.5614110984E+01
          0                 2           2             4    8     1       0.1263141768E-01       4    8    1         0.6917883482E+00      0.1110758238E+01
          0                 3           2             4    8     1       0.4282703211E-02       4    8    1         0.2331294227E+00      0.3343222993E+00
          0                 4           2             4    8     1       0.1454651140E-02       4    8    1         0.7914732376E-01      0.1119087453E+00
          0                 5           2             4    8     1       0.4948006279E-03       4    8    1         0.2689061115E-01      0.3785378269E-01
          0                 6           2             4    8     1       0.1685052547E-03       4    8    1         0.9149841828E-02      0.1286601119E-01
          0                 7           1             4    8     1       0.5743931881E-04       4    8    1         0.3116739741E-02      0.4386403793E-02

    ------------------------------------------------
       NWT REQUIRED            7 OUTER ITERATIONS 
       AND A TOTAL OF         13 INNER ITERATIONS.
    ------------------------------------------------

 NO OUTPUT CONTROL FOR STRESS PERIOD   24   TIME STEP   22
 
 SOLVING FOR HEAD 
                                                   Max.-Head-Change                         Max.-Flux-Residual
  Residual-Control   Outer-Iter.   Inner-Iter.     Column Row Layer    Maximum-Head-Change  Column Row Layer    Maximum-Flux-Residual          L2-NORM 
          0                 1           2             3    7     1       0.4171233292E-01       4    5    1         0.1612880688E+01      0.5188985495E+01
          0                 2           2             4    6     1       0.8859344102E-02       4    6    1         0.4897497052E+00      0.8416154904E+00
          0                 3           2             4    6     1       0.2981136730E-02       4    6    1         0.1630948252E+00      0.2230479331E+00
          0                 4           2             4    6     1       0.1005806654E-02       4    6    1         0.5500225566E-01      0.7155558330E-01
          0                 5           2             4    6     1       0.3400738039E-03       4    6    1         0.1856403367E-01      0.2353244282E-01
          0                 6           2             4    6     1       0.1151789518E-03       4    6    1         0.6279606296E-02      0.7826282906E-02
          0                 7           1             4    6     1       0.3906288024E-04       4    6    1         0.2127570817E-02      0.2621930326E-02

    ------------------------------------------------
       NWT REQUIRED            7 OUTER ITERATIONS 
       AND A TOTAL OF         13 INNER ITERATIONS.
    ------------------------------------------------

 NO OUTPUT CONTROL FOR STRESS PERIOD   24   TIME STEP   23
 
 SOLVING FOR HEAD 
                                                   Max.-Head-Change                         Max.-Flux-Residual
  Residual-Control   Outer-Iter.   Inner-Iter.     Column Row Layer    Maximum-Head-Change  Column Row Layer    Maximum-Flux-Residual          L2-NORM 
          0                 1           2             3    7     1       0.4086104590E-01       4    5    1         0.1602681314E+01      0.5430078152E+01
          0                 2           2             4    6     1       0.8008024026E-02       4    6    1         0.4478974066E+00      0.9098295788E+00
          0                 3           2             4    6     1       0.2661256497E-02       4    6    1         0.1469129004E+00      0.2246811554E+00
          0                 4           2             4    6     1       0.8887032534E-03       4    6    1         0.4897001487E-01      0.6514148946E-01
          0                 5           2             4    6     1       0.2979241921E-03       4    6    1         0.1636703683E-01      0.1974152551E-01
          0                 6           1             4    6     1       0.1001805012E-03       4    6    1         0.5491540913E-02      0.6177134635E-02
          0                 7           1             4    6     1       0.3376804846E-04       4    6    1         0.1847808353E-02      0.1983827159E-02

    ------------------------------------------------
       NWT REQUIRED            7 OUTER ITERATIONS 
       AND A TOTAL OF         12 INNER ITERATIONS.
    ------------------------------------------------

 NO OUTPUT CONTROL FOR STRESS PERIOD   24   TIME STEP   24
 
 SOLVING FOR HEAD 
                                                   Max.-Head-Change                         Max.-Flux-Residual
  Residual-Control   Outer-Iter.   Inner-Iter.     Column Row Layer    Maximum-Head-Change  Column Row Layer    Maximum-Flux-Residual          L2-NORM 
          0                 1           2             3    7     1       0.4020117071E-01       5    8    1         0.1943283096E+01      0.5382932408E+01
          0                 2           2             5    8     1       0.1168639883E-01       5    8    1         0.6540615938E+00      0.1004333819E+01
          0                 3           2             5    8     1       0.3863617672E-02       5    8    1         0.2143165186E+00      0.2828791055E+00
          0                 4           2             5    8     1       0.1280611254E-02       5    8    1         0.7099362864E-01      0.9003827361E-01
          0                 5           2             5    8     1       0.4253620876E-03       5    8    1         0.2354071981E-01      0.2924729742E-01
          0                 6           1             5    8     1       0.1415330712E-03       5    8    1         0.7822981943E-02      0.9609199057E-02
          0                 7           1             5    8     1       0.4716077776E-04       5    8    1         0.2603978098E-02      0.3182805719E-02

    ------------------------------------------------
       NWT REQUIRED            7 OUTER ITERATIONS 
       AND A TOTAL OF         12 INNER ITERATIONS.
    ------------------------------------------------

 NO OUTPUT CONTROL FOR STRESS PERIOD   24   TIME STEP   25
 
 SOLVING FOR HEAD 
                                                   Max.-Head-Change                         Max.-Flux-Residual
  Residual-Control   Outer-Iter.   Inner-Iter.     Column Row Layer    Maximum-Head-Change  Column Row Layer    Maximum-Flux-Residual          L2-NORM 
          0                 1           2             3    7     1       0.3996359062E-01       4    7    1         0.1887896469E+01      0.5407073695E+01
          0                 2           2             4    7     1       0.1183574880E-01       4    7    1         0.6445993414E+00      0.1039269658E+01
          0                 3           2             4    7     1       0.4031675825E-02       4    7    1         0.2187668864E+00      0.2969376665E+00
          0                 4           2             4    7     1       0.1376073242E-02       4    7    1         0.7458571658E-01      0.9579636045E-01
          0                 5           2             4    7     1       0.4704548091E-03       4    7    1         0.2546714865E-01      0.3172802574E-01
          0                 6           1             4    7     1       0.1610647273E-03       4    7    1         0.8709936997E-02      0.1067034145E-01
          0                 7           1             4    7     1       0.5520767826E-04       4    7    1         0.2982832250E-02      0.3625020053E-02

    ------------------------------------------------
       NWT REQUIRED            7 OUTER ITERATIONS 
       AND A TOTAL OF         12 INNER ITERATIONS.
    ------------------------------------------------

 NO OUTPUT CONTROL FOR STRESS PERIOD   24   TIME STEP   26
 
 SOLVING FOR HEAD 
                                                   Max.-Head-Change                         Max.-Flux-Residual
  Residual-Control   Outer-Iter.   Inner-Iter.     Column Row Layer    Maximum-Head-Change  Column Row Layer    Maximum-Flux-Residual          L2-NORM 
          0                 1           2             3    7     1       0.3955875111E-01       4    8    1         0.2131635528E+01      0.5357185492E+01
          0                 2           2             4    8     1       0.1339388677E-01       4    8    1         0.7319163833E+00      0.1121180440E+01
          0                 3           2             4    8     1       0.4549533106E-02       4    8    1         0.2473530123E+00      0.3449310583E+00
          0                 4           2             4    8     1       0.1547474970E-02       4    8    1         0.8411028538E-01      0.1159121244E+00
          0                 5           2             4    8     1       0.5269458036E-03       4    8    1         0.2861523626E-01      0.3926023625E-01
          0                 6           2             4    8     1       0.1795968373E-03       4    8    1         0.9746229710E-02      0.1334577475E-01
          0                 7           1             4    8     1       0.6125706792E-04       4    8    1         0.3322332399E-02      0.4547413602E-02

    ------------------------------------------------
       NWT REQUIRED            7 OUTER ITERATIONS 
       AND A TOTAL OF         13 INNER ITERATIONS.
    ------------------------------------------------

 NO OUTPUT CONTROL FOR STRESS PERIOD   24   TIME STEP   27
 
 SOLVING FOR HEAD 
                                                   Max.-Head-Change                         Max.-Flux-Residual
  Residual-Control   Outer-Iter.   Inner-Iter.     Column Row Layer    Maximum-Head-Change  Column Row Layer    Maximum-Flux-Residual          L2-NORM 
          0                 1           2             3    7     1       0.3882729134E-01       4    5    1         0.1540550623E+01      0.4706582966E+01
          0                 2           2             5    7     1       0.7827096632E-02       5    7    1         0.4369536180E+00      0.6963722641E+00
          0                 3           2             5    7     1       0.2593315746E-02       5    7    1         0.1436481254E+00      0.1692448863E+00
          0                 4           2             5    7     1       0.8608909904E-03       5    7    1         0.4767511112E-01      0.5253762897E-01
          0                 5           2             5    7     1       0.2862294008E-03       5    7    1         0.1583089933E-01      0.1685387052E-01
          0                 6           1             5    7     1       0.9528407885E-04       5    7    1         0.5265343940E-02      0.5482236856E-02

    ------------------------------------------------
       NWT REQUIRED            6 OUTER ITERATIONS 
       AND A TOTAL OF         11 INNER ITERATIONS.
    ------------------------------------------------

 NO OUTPUT CONTROL FOR STRESS PERIOD   24   TIME STEP   28
 
 SOLVING FOR HEAD 
                                                   Max.-Head-Change                         Max.-Flux-Residual
  Residual-Control   Outer-Iter.   Inner-Iter.     Column Row Layer    Maximum-Head-Change  Column Row Layer    Maximum-Flux-Residual          L2-NORM 
          0                 1           2             3    7     1       0.3806616737E-01       4    6    1        -0.1626011063E+01      0.5109389910E+01
          0                 2           2             4    6     1      -0.8197812579E-02       4    6    1        -0.4372284077E+00      0.8451315109E+00
          0                 3           2             4    6     1      -0.2259713206E-02       4    6    1        -0.1215939337E+00      0.1986293415E+00
          0                 4           2             4    6     1      -0.6226726461E-03       4    6    1        -0.3344613468E-01      0.5273969686E-01
          0                 5           2             4    6     1      -0.1715323723E-03       4    6    1        -0.9217645093E-02      0.1420960553E-01
          0                 6           1             4    6     1      -0.4724313845E-04       4    6    1        -0.2539051030E-02      0.3837021186E-02

    ------------------------------------------------
       NWT REQUIRED            6 OUTER ITERATIONS 
       AND A TOTAL OF         11 INNER ITERATIONS.
    ------------------------------------------------

 NO OUTPUT CONTROL FOR STRESS PERIOD   24   TIME STEP   29
 
 SOLVING FOR HEAD 
                                                   Max.-Head-Change                         Max.-Flux-Residual
  Residual-Control   Outer-Iter.   Inner-Iter.     Column Row Layer    Maximum-Head-Change  Column Row Layer    Maximum-Flux-Residual          L2-NORM 
          0                 1           2             3    7     1       0.3747476149E-01       4    6    1        -0.1517753002E+01      0.4712753623E+01
          0                 2           2             4    6     1      -0.7507831359E-02       4    6    1        -0.4032935771E+00      0.7032792078E+00
          0                 3           2             4    6     1      -0.2050339719E-02       4    6    1        -0.1110695660E+00      0.1592610868E+00
          0                 4           2             4    6     1      -0.5603359059E-03       4    6    1        -0.3027361971E-01      0.4284354199E-01
          0                 5           2             4    6     1      -0.1532587250E-03       4    6    1        -0.8277224644E-02      0.1176537436E-01
          0                 6           1             4    6     1      -0.4195754677E-04       4    6    1        -0.2264400549E-02      0.3235871346E-02

    ------------------------------------------------
       NWT REQUIRED            6 OUTER ITERATIONS 
       AND A TOTAL OF         11 INNER ITERATIONS.
    ------------------------------------------------

 NO OUTPUT CONTROL FOR STRESS PERIOD   24   TIME STEP   30



 STREAM LISTING     PERIOD     24   STEP       30

 LAYER ROW COL. STREAM  RCH.  FLOW INTO     FLOW TO   FLOW OUT OF   OVRLND.     DIRECT     STREAM       STREAM     STREAM     STREAM   STREAMBED  STREAMBED
                SEG.NO.  NO.  STRM. RCH.    AQUIFER    STRM. RCH.    RUNOFF     PRECIP       ET          HEAD       DEPTH      WIDTH   CONDCTNC.   GRADIENT

   1    1    1     1     1    7.8751E+00  1.2805E-01   7.7471E+00  0.000E+00  0.000E+00  0.000E+00  1.09388E+03  8.295E-01  7.430E+00  3.344E-02  1.276E+00
   1    2    2     1     2    7.7471E+00  1.9663E-01   7.5504E+00  0.000E+00  0.000E+00  0.000E+00  1.08888E+03  8.238E-01  7.346E+00  5.142E-02  1.275E+00
   1    3    3     1     3    7.5504E+00  1.6607E-01   7.3844E+00  0.000E+00  0.000E+00  0.000E+00  1.08324E+03  8.173E-01  7.251E+00  4.350E-02  1.272E+00
   1    3    4     1     4    7.3844E+00  1.5159E-01   7.2328E+00  0.000E+00  0.000E+00  0.000E+00  1.07822E+03  8.115E-01  7.166E+00  3.977E-02  1.270E+00
   1    4    5     2     1    5.2328E+00  2.7028E-01   4.9625E+00  0.000E+00  0.000E+00  0.000E+00  1.07240E+03  4.651E-01  1.200E+01  7.800E-02  1.155E+00
   1    5    6     2     2    4.9625E+00  2.0712E-01   4.7554E+00  0.000E+00  0.000E+00  0.000E+00  1.06696E+03  4.519E-01  1.200E+01  6.000E-02  1.151E+00
   1    6    6     2     3    4.7554E+00  2.0642E-01   4.5490E+00  0.000E+00  0.000E+00  0.000E+00  1.06223E+03  4.403E-01  1.200E+01  6.000E-02  1.147E+00
   1    7    6     2     4    4.5490E+00  2.0571E-01   4.3433E+00  0.000E+00  0.000E+00  0.000E+00  1.05750E+03  4.285E-01  1.200E+01  6.000E-02  1.143E+00
   1    8    6     2     5    4.3433E+00  2.0499E-01   4.1383E+00  0.000E+00  0.000E+00  0.000E+00  1.05278E+03  4.165E-01  1.200E+01  6.000E-02  1.139E+00
   1    3    5     3     1    2.0000E+00  2.8252E-01   1.7175E+00  0.000E+00  0.000E+00  0.000E+00  1.07555E+03  1.909E+00  9.636E+00  7.227E-02  1.955E+00
   1    3    6     3     2    1.7175E+00  2.4905E-01   1.4684E+00  0.000E+00  0.000E+00  0.000E+00  1.07264E+03  1.727E+00  8.909E+00  6.682E-02  1.864E+00
   1    3    7     3     3    1.4684E+00  1.9718E-01   1.2712E+00  0.000E+00  0.000E+00  0.000E+00  1.06987E+03  1.555E+00  8.218E+00  5.547E-02  1.777E+00
   1    4    8     3     4    1.2712E+00  2.2567E-01   1.0456E+00  0.000E+00  0.000E+00  0.000E+00  1.06682E+03  1.364E+00  7.455E+00  6.709E-02  1.682E+00
   1    5    8     3     5    1.0456E+00  1.5790E-01   8.8768E-01  0.000E+00  0.000E+00  0.000E+00  1.06362E+03  1.164E+00  6.655E+00  4.991E-02  1.582E+00
   1    6    8     3     6    8.8768E-01  5.5980E-02   8.3170E-01  0.000E+00  0.000E+00  0.000E+00  1.06158E+03  1.036E+00  6.145E+00  1.844E-02  1.518E+00
   1    5   10     4     1    1.0000E+01  9.0919E-02   9.9091E+00  0.000E+00  0.000E+00  0.000E+00  1.07836E+03  6.368E-01  1.000E+01  2.500E-02  1.212E+00
   1    5    9     4     2    9.9091E+00  1.8158E-01   9.7275E+00  0.000E+00  0.000E+00  0.000E+00  1.07154E+03  6.315E-01  1.000E+01  5.000E-02  1.211E+00
   1    6    8     4     3    9.7275E+00  1.2689E-01   9.6006E+00  0.000E+00  0.000E+00  0.000E+00  1.06381E+03  6.256E-01  1.000E+01  3.500E-02  1.209E+00
   1    6    8     5     1    1.0432E+01  2.2686E-01   1.0205E+01  0.000E+00  0.000E+00  0.000E+00  1.05868E+03  6.790E-01  1.542E+01  6.166E-02  1.226E+00
   1    7    7     5     2    1.0205E+01  2.7894E-01   9.9265E+00  0.000E+00  0.000E+00  0.000E+00  1.05417E+03  6.732E-01  1.519E+01  7.594E-02  1.224E+00
   1    8    7     5     3    9.9265E+00  1.9221E-01   9.7343E+00  0.000E+00  0.000E+00  0.000E+00  1.04992E+03  6.676E-01  1.497E+01  5.241E-02  1.223E+00
   1    8    6     5     4    9.7343E+00  1.3577E-01   9.5985E+00  0.000E+00  0.000E+00  0.000E+00  1.04691E+03  6.637E-01  1.482E+01  3.706E-02  1.221E+00
   1    9    6     6     1    1.3737E+01  2.3089E-01   1.3506E+01  0.000E+00  0.000E+00  0.000E+00  1.04358E+03  8.482E-01  1.200E+01  6.000E-02  1.283E+00
   1   10    7     6     2    1.3506E+01  2.3037E-01   1.3276E+01  0.000E+00  0.000E+00  0.000E+00  1.03902E+03  8.396E-01  1.200E+01  6.000E-02  1.280E+00
   1   11    7     6     3    1.3276E+01  2.2985E-01   1.3046E+01  0.000E+00  0.000E+00  0.000E+00  1.03447E+03  8.309E-01  1.200E+01  6.000E-02  1.277E+00
   1   12    7     6     4    1.3046E+01  2.2933E-01   1.2816E+01  0.000E+00  0.000E+00  0.000E+00  1.02991E+03  8.221E-01  1.200E+01  6.000E-02  1.274E+00
   1   13    7     6     5    1.2816E+01  7.8767E-03   1.2808E+01  0.000E+00  0.000E+00  0.000E+00  1.02673E+03  8.176E-01  1.200E+01  2.400E-02  1.094E-01
   1   14    9     7     1    1.5000E+02  1.3934E+00   1.4861E+02  0.000E+00  0.000E+00  0.000E+00  1.03987E+03  2.288E+00  5.529E+01  5.593E-01  8.305E-01
   1   13    8     7     2    1.4861E+02  2.0390E+00   1.4657E+02  0.000E+00  0.000E+00  0.000E+00  1.03478E+03  2.278E+00  5.525E+01  6.147E-01  1.106E+00
   1   13    7     7     3    1.4657E+02  1.8363E+00   1.4473E+02  0.000E+00  0.000E+00  0.000E+00  1.02969E+03  2.268E+00  5.521E+01  5.583E-01  1.096E+00
   1   13    6     8     1    1.5754E+02  1.2174E+00   1.5632E+02  0.000E+00  0.000E+00  0.000E+00  1.02474E+03  2.865E+00  4.154E+01  4.233E-01  9.586E-01
   1   13    5     8     2    1.5632E+02  4.6814E-01   1.5585E+02  0.000E+00  0.000E+00  0.000E+00  1.01848E+03  2.859E+00  4.146E+01  4.225E-01  3.694E-01
   1   13    4     8     3    1.5585E+02 -1.4078E+00   1.5726E+02  0.000E+00  0.000E+00  0.000E+00  1.01224E+03  2.862E+00  4.150E+01  4.229E+00 -1.109E-01
   1   13    3     8     4    1.5726E+02 -3.1562E+00   1.6042E+02  0.000E+00  0.000E+00  0.000E+00  1.00600E+03  2.878E+00  4.173E+01  4.253E+00 -2.474E-01
   1   13    2     8     5    1.6042E+02 -2.4670E+00   1.6289E+02  0.000E+00  0.000E+00  0.000E+00  9.99772E+02  2.897E+00  4.201E+01  4.281E+00 -1.921E-01
   1   13    1     8     6    1.6289E+02 -1.9554E+00   1.6484E+02  0.000E+00  0.000E+00  0.000E+00  9.94787E+02  2.912E+00  4.222E+01  2.581E+00 -2.525E-01
   1    8    6     9     1    0.0000E+00  0.0000E+00   0.0000E+00  0.000E+00  0.000E+00  0.000E+00  1.07875E+03  0.000E+00  4.000E+00  0.000E+00  1.000E+00
   1    8    5     9     2    0.0000E+00  0.0000E+00   0.0000E+00  0.000E+00  0.000E+00  0.000E+00  1.07825E+03  0.000E+00  4.000E+00  0.000E+00  1.000E+00





UNSATURATED ZONE PACKAGE VOLUMETRIC BUDGET FOR  TIME STEP    30 STRESS PERIOD   24
  ------------------------------------------------------------------------------



     CUMULATIVE VOLUMES      L**3       RATES FOR THIS TIME STEP      L**3/T
     ------------------                 ------------------------

           IN:                                      IN:
           ---                                      ---
        INFILTRATION =  6660835375.5399          INFILTRATION =           0.8475

          OUT:                                     OUT:
          ----                                     ----
              UZF ET =   860624629.3035                UZF ET =           0.7500
        UZF RECHARGE =  5322732163.5591          UZF RECHARGE =           5.0682

            IN - OUT =   477478582.6774              IN - OUT =          -4.9707

          STORAGE:                                 STORAGE:
          --------                                 --------
      STORAGE CHANGE =   478190514.4841        STORAGE CHANGE =          -4.9707

 PERCENT DISCREPANCY IS DIFFERENCE BETWEEN IN-OUT MINUS CHANGE IN STORAGE
 DIVIDED BY THE AVERAGE OF IN AND OUT TIMES 100

 PERCENT DISCREPANCY =          -0.00     PERCENT DISCREPANCY =           0.00






1
  VOLUMETRIC BUDGET FOR AGRICULTURAL FIELDS AT  END OF TIME STEP   30, STRESS PERIOD  24
  ------------------------------------------------------------------------------

     CUMULATIVE VOLUMES      L**3       RATES FOR THIS TIME STEP      L**3/T
     ------------------                 ------------------------

           IN:                                      IN:
           ---                                      ---
               AG WELLS  =  6318206976.0000                 AG WELLS  =           0.0000
      DIVERSION SEGMENTS =   291316640.0000        DIVERSION SEGMENTS =           0.0000
           GW IRRIGATION =           0.0000             GW IRRIGATION =           0.0000
           SW IRRIGATION =           0.0000             SW IRRIGATION =           0.0000
        SYSTEM LOSSES GW =           0.0000          SYSTEM LOSSES GW =           0.0000
        SYSTEM LOSSES SW =           0.0000          SYSTEM LOSSES SW =           0.0000

                TOTAL IN =  6609523712.0000                  TOTAL IN =           0.0000

          OUT:                                     OUT:
          ----                                     ----
               AG WELLS  =           0.0000                 AG WELLS  =           0.0000
      DIVERSION SEGMENTS =           0.0000        DIVERSION SEGMENTS =           0.0000
           GW IRRIGATION =  6318206976.0000             GW IRRIGATION =           0.0000
           SW IRRIGATION =   291322048.0000             SW IRRIGATION =           0.0000
        SYSTEM LOSSES GW =           0.0000          SYSTEM LOSSES GW =           0.0000
        SYSTEM LOSSES SW =           0.0000          SYSTEM LOSSES SW =           0.0000

               TOTAL OUT =  6609528832.0000                 TOTAL OUT =           0.0000

                IN - OUT =       -5120.0000                  IN - OUT =           0.0000

     PERCENT DISCREPANCY =          -0.00         PERCENT DISCREPANCY =           0.00



1
  VOLUMETRIC BUDGET FOR ENTIRE MODEL AT END OF TIME STEP   30, STRESS PERIOD  24
  ------------------------------------------------------------------------------

     CUMULATIVE VOLUMES      L**3       RATES FOR THIS TIME STEP      L**3/T
     ------------------                 ------------------------

           IN:                                      IN:
           ---                                      ---
             STORAGE     =  5781000704.0000               STORAGE     =          10.9713
       CONSTANT HEAD     =           0.0000         CONSTANT HEAD     =           0.0000
     HEAD DEP BOUNDS     =    17469414.0000       HEAD DEP BOUNDS     =           0.2897
      STREAM LEAKAGE     =   729008768.0000        STREAM LEAKAGE     =          12.0208
        UZF RECHARGE     =  5322730496.0000          UZF RECHARGE     =           5.0682
               GW ET     =           0.0000                 GW ET     =           0.0000
     SURFACE LEAKAGE     =           0.0000       SURFACE LEAKAGE     =           0.0000
           AG WELLS      =           0.0000             AG WELLS      =           0.0000

                TOTAL IN = 11850209280.0000                  TOTAL IN =          28.3499

          OUT:                                     OUT:
          ----                                     ----
             STORAGE     =  4925891072.0000               STORAGE     =          19.0788
       CONSTANT HEAD     =           0.0000         CONSTANT HEAD     =           0.0000
     HEAD DEP BOUNDS     =    17441936.0000       HEAD DEP BOUNDS     =           0.2867
      STREAM LEAKAGE     =   588590016.0000        STREAM LEAKAGE     =           8.9864
        UZF RECHARGE     =           0.0000          UZF RECHARGE     =           0.0000
               GW ET     =           0.0000                 GW ET     =           0.0000
     SURFACE LEAKAGE     =           0.0000       SURFACE LEAKAGE     =           0.0000
           AG WELLS      =  6318206976.0000             AG WELLS      =           0.0000

               TOTAL OUT = 11850129408.0000                 TOTAL OUT =          28.3518

                IN - OUT =       79872.0000                  IN - OUT =      -1.8921E-03

     PERCENT DISCREPANCY =           0.00         PERCENT DISCREPANCY =          -0.01






         TIME SUMMARY AT END OF TIME STEP   30 IN STRESS PERIOD   24
                    SECONDS     MINUTES      HOURS       DAYS        YEARS
                    -----------------------------------------------------------
   TIME STEP LENGTH  87667.      1461.1      24.352      1.0147     2.77799E-03
 STRESS PERIOD TIME 2.63000E+06  43833.      730.56      30.440     8.33397E-02
         TOTAL TIME 6.05767E+07 1.00961E+06  16827.      701.12      1.9196    
1
1
                            STRESS PERIOD NO.   25, LENGTH =   2630000.    
                            -----------------------------------------------

                              NUMBER OF TIME STEPS =    30

                               MULTIPLIER FOR DELT =     1.000

                            INITIAL TIME STEP SIZE =   87666.66    

 REUSING NON-PARAMETER GHB CELLS FROM LAST STRESS PERIOD

      2 GHB CELLS

 REUSING STREAM SEGMENT DATA FROM LAST STRESS PERIOD



            AREAL INFILTRATION RATE
 READING ON UNIT   19 WITH FORMAT: (FREE)              

            1           2           3           4           5           6           7           8           9          10
 ........................................................................................................................
   1   1.0000E-10  2.0000E-10   0.000       0.000       0.000       0.000       0.000       0.000       0.000       0.000    
   2   2.0000E-10  1.0000E-10  2.0000E-10   0.000       0.000      8.0000E-10  8.0000E-10  5.0000E-10   0.000       0.000    
   3    0.000      5.0000E-10  1.0000E-10  1.0000E-10  8.0000E-10  8.0000E-10  5.0000E-10  5.0000E-10   0.000       0.000    
   4   8.0000E-10  5.0000E-10  1.0000E-10  1.0000E-10  1.0000E-10  1.0000E-10  1.0000E-10  1.0000E-10  2.0000E-10   0.000    
   5   8.0000E-10  5.0000E-10  1.0000E-10  1.0000E-10  1.0000E-10  1.0000E-10  1.0000E-10  1.0000E-10  1.0000E-10  1.0000E-10
   6   8.0000E-10  5.0000E-10  5.0000E-10  2.0000E-10  2.0000E-10  1.0000E-10  1.0000E-10  1.0000E-10  1.0000E-10  5.0000E-10
   7   8.0000E-10  5.0000E-10  5.0000E-10  2.0000E-10  2.0000E-10  1.0000E-10  1.0000E-10  2.0000E-10  2.0000E-10   0.000    
   8    0.000      5.0000E-10  5.0000E-10  2.0000E-10  2.0000E-10  1.0000E-10  1.0000E-10  2.0000E-10  5.0000E-10   0.000    
   9    0.000      5.0000E-10  5.0000E-10  2.0000E-10  2.0000E-10  1.0000E-10  1.0000E-10  2.0000E-10  5.0000E-10   0.000    
  10    0.000      5.0000E-10  5.0000E-10  2.0000E-10  2.0000E-10  1.0000E-10  1.0000E-10  2.0000E-10  5.0000E-10  8.0000E-10
  11    0.000      1.0000E-10  1.0000E-10  1.0000E-10  1.0000E-10  1.0000E-10  1.0000E-10  2.0000E-10  5.0000E-10   0.000    
  12   1.0000E-10  1.0000E-10  1.0000E-10  1.0000E-10  1.0000E-10  1.0000E-10  1.0000E-10  1.0000E-10  2.0000E-10   0.000    
  13   1.0000E-10  1.0000E-10  2.0000E-10  2.0000E-10  2.0000E-10  2.0000E-10  2.0000E-10  1.0000E-10  1.0000E-10   0.000    
  14    0.000      2.0000E-10  5.0000E-10  5.0000E-10  5.0000E-10  5.0000E-10  5.0000E-10  2.0000E-10  1.0000E-10   0.000    
  15    0.000       0.000      8.0000E-10  8.0000E-10  8.0000E-10  8.0000E-10   0.000       0.000       0.000       0.000    

                  ET RATE =  5.000000E-10

 USING ET EXTINCTION DEPTH FROM PREVIOUS STRESS PERIOD. CURRENT PERIOD IS:      25

 USING EXTINCTION WATER CONTENT FROM PREVIOUS STRESS PERIOD. CURRENT PERIOD IS:      25

 USING AIR ENTRY PRESSURE FROM PREVIOUS STRESS PERIOD. CURRENT PERIOD IS:      25

 USING ROOT PRESSURE HEAD FROM PREVIOUS STRESS PERIOD. CURRENT PERIOD IS:      25

 USING ROOT ACTIVITY FROM PREVIOUS STRESS PERIOD. CURRENT PERIOD IS:      25

 PROCESSING AG STRESS PERIOD DATA

 READING AG STRESS PERIOD DATA

 READING IRRIGATION SEGMENT

 READING IRRIGATION WELL

 READING SUPPLEMENTAL WELL

 END PROCESSING AG STRESS PERIOD DATA OPTIONS
 
 SOLVING FOR HEAD 
                                                   Max.-Head-Change                         Max.-Flux-Residual
  Residual-Control   Outer-Iter.   Inner-Iter.     Column Row Layer    Maximum-Head-Change  Column Row Layer    Maximum-Flux-Residual          L2-NORM 
          0                 1           2             3    7     1       0.3728356223E-01       4    7    1         0.1933384445E+01      0.4891813493E+01
          0                 2           2             4    7     1       0.1167520203E-01       4    7    1         0.6456110302E+00      0.9013670543E+00
          0                 3           2             4    7     1       0.3903328267E-02       4    7    1         0.2148225734E+00      0.2522028297E+00
          0                 4           2             4    7     1       0.1309419721E-02       4    7    1         0.7190947159E-01      0.7956707312E-01
          0                 5           2             4    7     1       0.4405124821E-03       4    7    1         0.2413958754E-01      0.2574401339E-01
          0                 6           1             4    7     1       0.1485521909E-03       4    7    1         0.8125958203E-02      0.8455292699E-02
          0                 7           1             4    7     1       0.5019775648E-04       4    7    1         0.2741672777E-02      0.2809210677E-02

    ------------------------------------------------
       NWT REQUIRED            7 OUTER ITERATIONS 
       AND A TOTAL OF         12 INNER ITERATIONS.
    ------------------------------------------------

 NO OUTPUT CONTROL FOR STRESS PERIOD   25   TIME STEP    1
 
 SOLVING FOR HEAD 
                                                   Max.-Head-Change                         Max.-Flux-Residual
  Residual-Control   Outer-Iter.   Inner-Iter.     Column Row Layer    Maximum-Head-Change  Column Row Layer    Maximum-Flux-Residual          L2-NORM 
          0                 1           2             4    8     1       0.3961372472E-01       4    8    1         0.2136005394E+01      0.5064958971E+01
          0                 2           2             4    8     1       0.1345907934E-01       4    8    1         0.7342462224E+00      0.1125090906E+01
          0                 3           2             4    8     1       0.4578646096E-02       4    8    1         0.2486742105E+00      0.3529488550E+00
          0                 4           2             4    8     1       0.1559246637E-02       4    8    1         0.8467553179E-01      0.1190403733E+00
          0                 5           2             4    8     1       0.5314560298E-03       4    8    1         0.2884033487E-01      0.4039444834E-01
          0                 6           2             4    8     1       0.1812690261E-03       4    8    1         0.9831654494E-02      0.1374632379E-01
          0                 7           1             4    8     1       0.6186332271E-04       4    8    1         0.3353748360E-02      0.4686708099E-02

    ------------------------------------------------
       NWT REQUIRED            7 OUTER ITERATIONS 
       AND A TOTAL OF         13 INNER ITERATIONS.
    ------------------------------------------------

 NO OUTPUT CONTROL FOR STRESS PERIOD   25   TIME STEP    2
 
 SOLVING FOR HEAD 
                                                   Max.-Head-Change                         Max.-Flux-Residual
  Residual-Control   Outer-Iter.   Inner-Iter.     Column Row Layer    Maximum-Head-Change  Column Row Layer    Maximum-Flux-Residual          L2-NORM 
          0                 1           2             3    7     1       0.3620899270E-01       5    7    1         0.1459644893E+01      0.4450828927E+01
          0                 2           2             5    7     1       0.8894141926E-02       5    7    1         0.4935015337E+00      0.7343134439E+00
          0                 3           2             5    7     1       0.2963653715E-02       5    7    1         0.1635168130E+00      0.1926172504E+00
          0                 4           2             5    7     1       0.9884826942E-03       5    7    1         0.5455016329E-01      0.6059712738E-01
          0                 5           2             5    7     1       0.3299341290E-03       5    7    1         0.1819564555E-01      0.1954671428E-01
          0                 6           2             5    7     1       0.1101884399E-03       5    7    1         0.6074236822E-02      0.6382753680E-02
          0                 7           1             5    7     1       0.3681667660E-04       5    7    1         0.2028837566E-02      0.2101690587E-02

    ------------------------------------------------
       NWT REQUIRED            7 OUTER ITERATIONS 
       AND A TOTAL OF         13 INNER ITERATIONS.
    ------------------------------------------------

 NO OUTPUT CONTROL FOR STRESS PERIOD   25   TIME STEP    3
 
 SOLVING FOR HEAD 
                                                   Max.-Head-Change                         Max.-Flux-Residual
  Residual-Control   Outer-Iter.   Inner-Iter.     Column Row Layer    Maximum-Head-Change  Column Row Layer    Maximum-Flux-Residual          L2-NORM 
          0                 1           2             3    7     1       0.3549195152E-01       5    7    1         0.1543992713E+01      0.4643128979E+01
          0                 2           2             5    7     1       0.7208667653E-02       5    7    1         0.4070523392E+00      0.7564277917E+00
          0                 3           2             5    7     1       0.1866515665E-02       5    7    1         0.1048015338E+00      0.1759012537E+00
          0                 4           2             4    6     1      -0.5015991505E-03       5    7    1         0.2717135784E-01      0.4660900866E-01
          0                 5           2             4    6     1      -0.1384685083E-03       4    6    1        -0.7429768525E-02      0.1253730620E-01
          0                 6           1             4    6     1      -0.3820963116E-04       4    6    1        -0.2050747046E-02      0.3379530986E-02

    ------------------------------------------------
       NWT REQUIRED            6 OUTER ITERATIONS 
       AND A TOTAL OF         11 INNER ITERATIONS.
    ------------------------------------------------

 NO OUTPUT CONTROL FOR STRESS PERIOD   25   TIME STEP    4
 
 SOLVING FOR HEAD 
                                                   Max.-Head-Change                         Max.-Flux-Residual
  Residual-Control   Outer-Iter.   Inner-Iter.     Column Row Layer    Maximum-Head-Change  Column Row Layer    Maximum-Flux-Residual          L2-NORM 
          0                 1           2             3    7     1       0.3496615077E-01       4    6    1        -0.1214703085E+01      0.4288877656E+01
          0                 2           2             4    6     1      -0.5976090334E-02       4    6    1        -0.3213885637E+00      0.6225089492E+00
          0                 3           2             4    6     1      -0.1627153735E-02       4    6    1        -0.8836534405E-01      0.1374210265E+00
          0                 4           2             4    6     1      -0.4429880850E-03       4    6    1        -0.2400408375E-01      0.3676393510E-01
          0                 5           2             4    6     1      -0.1205749281E-03       4    6    1        -0.6536668016E-02      0.1006411413E-01
          0                 6           1             4    6     1      -0.3280669814E-04       4    6    1        -0.1779038391E-02      0.2759769262E-02

    ------------------------------------------------
       NWT REQUIRED            6 OUTER ITERATIONS 
       AND A TOTAL OF         11 INNER ITERATIONS.
    ------------------------------------------------

 NO OUTPUT CONTROL FOR STRESS PERIOD   25   TIME STEP    5
 
 SOLVING FOR HEAD 
                                                   Max.-Head-Change                         Max.-Flux-Residual
  Residual-Control   Outer-Iter.   Inner-Iter.     Column Row Layer    Maximum-Head-Change  Column Row Layer    Maximum-Flux-Residual          L2-NORM 
          0                 1           2             4    7     1       0.3522257358E-01       4    7    1         0.1945262130E+01      0.4559659137E+01
          0                 2           2             4    7     1       0.1171411484E-01       4    7    1         0.6482519951E+00      0.8691129018E+00
          0                 3           2             4    7     1       0.3912887953E-02       4    7    1         0.2154875517E+00      0.2476505379E+00
          0                 4           2             4    7     1       0.1311751588E-02       4    7    1         0.7207196016E-01      0.7849294960E-01
          0                 5           1             4    7     1       0.4410539615E-03       4    7    1         0.2417946935E-01      0.2548196490E-01
          0                 6           1             4    7     1       0.1486560631E-03       4    7    1         0.8135226809E-02      0.8390003392E-02
          0                 7           1             4    7     1       0.5020288025E-04       4    7    1         0.2743398914E-02      0.2791295728E-02

    ------------------------------------------------
       NWT REQUIRED            7 OUTER ITERATIONS 
       AND A TOTAL OF         11 INNER ITERATIONS.
    ------------------------------------------------

 NO OUTPUT CONTROL FOR STRESS PERIOD   25   TIME STEP    6
 
 SOLVING FOR HEAD 
                                                   Max.-Head-Change                         Max.-Flux-Residual
  Residual-Control   Outer-Iter.   Inner-Iter.     Column Row Layer    Maximum-Head-Change  Column Row Layer    Maximum-Flux-Residual          L2-NORM 
          0                 1           2             5    6     1       0.3736458204E-01       5    6    1         0.2027133579E+01      0.4493279212E+01
          0                 2           2             5    6     1       0.1251319276E-01       5    6    1         0.6913148127E+00      0.9256395813E+00
          0                 3           2             5    6     1       0.4198207923E-02       5    6    1         0.2303581532E+00      0.2822785526E+00
          0                 4           2             5    6     1       0.1410670251E-02       5    6    1         0.7739591839E-01      0.9437935774E-01
          0                 5           2             5    6     1       0.4746279342E-03       5    6    1         0.2601191011E-01      0.3184034420E-01
          0                 6           2             5    6     1       0.1598701600E-03       5    6    1         0.8754502875E-02      0.1078678274E-01
          0                 7           1             5    6     1       0.5390183175E-04       5    6    1         0.2949525748E-02      0.3664512385E-02

    ------------------------------------------------
       NWT REQUIRED            7 OUTER ITERATIONS 
       AND A TOTAL OF         13 INNER ITERATIONS.
    ------------------------------------------------

 NO OUTPUT CONTROL FOR STRESS PERIOD   25   TIME STEP    7
 
 SOLVING FOR HEAD 
                                                   Max.-Head-Change                         Max.-Flux-Residual
  Residual-Control   Outer-Iter.   Inner-Iter.     Column Row Layer    Maximum-Head-Change  Column Row Layer    Maximum-Flux-Residual          L2-NORM 
          0                 1           2             3    7     1       0.3378171370E-01       4    5    1         0.1113007370E+01      0.4070509199E+01
          0                 2           2             4    6     1       0.5261576853E-02       4    6    1         0.2896202439E+00      0.6000775637E+00
          0                 3           2             4    6     1       0.1418093973E-02       4    6    1         0.7727025186E-01      0.1300268747E+00
          0                 4           2             4    6     1       0.3821659180E-03       4    6    1         0.2087545049E-01      0.3445405951E-01
          0                 5           1             4    6     1       0.1029804714E-03       4    6    1         0.5623606452E-02      0.9303775164E-02
          0                 6           1             4    6     1       0.2774690009E-04       4    6    1         0.1515387190E-02      0.2515305042E-02

    ------------------------------------------------
       NWT REQUIRED            6 OUTER ITERATIONS 
       AND A TOTAL OF         10 INNER ITERATIONS.
    ------------------------------------------------

 NO OUTPUT CONTROL FOR STRESS PERIOD   25   TIME STEP    8
 
 SOLVING FOR HEAD 
                                                   Max.-Head-Change                         Max.-Flux-Residual
  Residual-Control   Outer-Iter.   Inner-Iter.     Column Row Layer    Maximum-Head-Change  Column Row Layer    Maximum-Flux-Residual          L2-NORM 
          0                 1           2             3    7     1       0.3306548648E-01       4    5    1         0.1109315316E+01      0.4032420708E+01
          0                 2           2             4    6     1      -0.5509366405E-02       4    6    1        -0.2913606340E+00      0.5942717792E+00
          0                 3           2             4    6     1      -0.1534539832E-02       4    6    1        -0.8195656241E-01      0.1352587855E+00
          0                 4           2             4    6     1      -0.4274515755E-03       4    6    1        -0.2277556172E-01      0.3707669724E-01
          0                 5           2             4    6     1      -0.1190778981E-03       4    6    1        -0.6346103680E-02      0.1037222191E-01
          0                 6           1             4    6     1      -0.3317526015E-04       4    6    1        -0.1767891110E-02      0.2903300537E-02

    ------------------------------------------------
       NWT REQUIRED            6 OUTER ITERATIONS 
       AND A TOTAL OF         11 INNER ITERATIONS.
    ------------------------------------------------

 NO OUTPUT CONTROL FOR STRESS PERIOD   25   TIME STEP    9
 
 SOLVING FOR HEAD 
                                                   Max.-Head-Change                         Max.-Flux-Residual
  Residual-Control   Outer-Iter.   Inner-Iter.     Column Row Layer    Maximum-Head-Change  Column Row Layer    Maximum-Flux-Residual          L2-NORM 
          0                 1           2             3    7     1       0.3236450026E-01       4    5    1         0.1061377058E+01      0.3918395156E+01
          0                 2           2             4    6     1      -0.5180205987E-02       4    6    1        -0.2738967033E+00      0.5676561646E+00
          0                 3           2             4    6     1      -0.1442892879E-02       4    6    1        -0.7706407251E-01      0.1275025130E+00
          0                 4           2             4    6     1      -0.4019359495E-03       4    6    1        -0.2141534223E-01      0.3490808775E-01
          0                 5           2             4    6     1      -0.1119742389E-03       4    6    1        -0.5967345430E-02      0.9767092422E-02
          0                 6           1             4    6     1      -0.3119758261E-04       4    6    1        -0.1662444589E-02      0.2734329995E-02

    ------------------------------------------------
       NWT REQUIRED            6 OUTER ITERATIONS 
       AND A TOTAL OF         11 INNER ITERATIONS.
    ------------------------------------------------

 NO OUTPUT CONTROL FOR STRESS PERIOD   25   TIME STEP   10
 
 SOLVING FOR HEAD 
                                                   Max.-Head-Change                         Max.-Flux-Residual
  Residual-Control   Outer-Iter.   Inner-Iter.     Column Row Layer    Maximum-Head-Change  Column Row Layer    Maximum-Flux-Residual          L2-NORM 
          0                 1           2             3    7     1       0.3168215163E-01       4    5    1         0.1016368858E+01      0.3811814076E+01
          0                 2           2             4    6     1      -0.4868086569E-02       4    6    1        -0.2573353086E+00      0.5427654401E+00
          0                 3           2             4    6     1      -0.1355996671E-02       4    6    1        -0.7242501695E-01      0.1201858497E+00
          0                 4           2             4    6     1      -0.3777440800E-03       4    6    1        -0.2012565305E-01      0.3285832567E-01
          0                 5           1             4    6     1      -0.1052393639E-03       4    6    1        -0.5608240903E-02      0.9194543308E-02
          0                 6           1             4    6     1      -0.2932248623E-04       4    6    1        -0.1562467599E-02      0.2574326268E-02

    ------------------------------------------------
       NWT REQUIRED            6 OUTER ITERATIONS 
       AND A TOTAL OF         10 INNER ITERATIONS.
    ------------------------------------------------

 NO OUTPUT CONTROL FOR STRESS PERIOD   25   TIME STEP   11
 
 SOLVING FOR HEAD 
                                                   Max.-Head-Change                         Max.-Flux-Residual
  Residual-Control   Outer-Iter.   Inner-Iter.     Column Row Layer    Maximum-Head-Change  Column Row Layer    Maximum-Flux-Residual          L2-NORM 
          0                 1           2             3    7     1       0.3102573097E-01       4    6    1         0.1327372118E+01      0.3839139399E+01
          0                 2           2             4    6     1       0.8140081554E-02       4    6    1         0.4507333088E+00      0.6372289633E+00
          0                 3           2             4    6     1       0.2726668343E-02       4    6    1         0.1497558266E+00      0.1710649744E+00
          0                 4           2             4    6     1       0.9159429018E-03       4    6    1         0.5025538413E-01      0.5442064402E-01
          0                 5           2             4    6     1       0.3083972353E-03       4    6    1         0.1689005897E-01      0.1775419941E-01
          0                 6           1             4    6     1       0.1040329184E-03       4    6    1         0.5689828856E-02      0.5864224919E-02
          0                 7           1             4    6     1       0.3514750890E-04       4    6    1         0.1920155165E-02      0.1954273918E-02

    ------------------------------------------------
       NWT REQUIRED            7 OUTER ITERATIONS 
       AND A TOTAL OF         12 INNER ITERATIONS.
    ------------------------------------------------

 NO OUTPUT CONTROL FOR STRESS PERIOD   25   TIME STEP   12
 
 SOLVING FOR HEAD 
                                                   Max.-Head-Change                         Max.-Flux-Residual
  Residual-Control   Outer-Iter.   Inner-Iter.     Column Row Layer    Maximum-Head-Change  Column Row Layer    Maximum-Flux-Residual          L2-NORM 
          0                 1           2             3    7     1       0.3040692175E-01       4    6    1         0.1112725208E+01      0.3691304318E+01
          0                 2           2             4    6     1       0.5426157014E-02       4    6    1         0.3022288769E+00      0.5228586426E+00
          0                 3           2             4    6     1       0.1436835522E-02       4    6    1         0.7932289668E-01      0.1092800893E+00
          0                 4           2             4    6     1       0.3804948296E-03       4    6    1         0.2104932738E-01      0.2848508714E-01
          0                 5           1             4    6     1       0.1007640807E-03       4    6    1         0.5572461582E-02      0.7607349673E-02
          0                 6           1             4    6     1       0.2668484256E-04       4    6    1         0.1475775916E-02      0.2035327883E-02

    ------------------------------------------------
       NWT REQUIRED            6 OUTER ITERATIONS 
       AND A TOTAL OF         10 INNER ITERATIONS.
    ------------------------------------------------

 NO OUTPUT CONTROL FOR STRESS PERIOD   25   TIME STEP   13
 
 SOLVING FOR HEAD 
                                                   Max.-Head-Change                         Max.-Flux-Residual
  Residual-Control   Outer-Iter.   Inner-Iter.     Column Row Layer    Maximum-Head-Change  Column Row Layer    Maximum-Flux-Residual          L2-NORM 
          0                 1           2             3    7     1       0.2980930035E-01       4    6    1        -0.1087890714E+01      0.3612898813E+01
          0                 2           2             4    6     1      -0.5471057369E-02       4    6    1        -0.2918117602E+00      0.5065208179E+00
          0                 3           2             4    6     1      -0.1508493012E-02       4    6    1        -0.8114552434E-01      0.1102390182E+00
          0                 4           2             4    6     1      -0.4161550018E-03       4    6    1        -0.2233017542E-01      0.3000516123E-01
          0                 5           2             4    6     1      -0.1148680692E-03       4    6    1        -0.6162783314E-02      0.8372902460E-02
          0                 6           1             4    6     1      -0.3172261933E-04       4    6    1        -0.1701286020E-02      0.2338155258E-02

    ------------------------------------------------
       NWT REQUIRED            6 OUTER ITERATIONS 
       AND A TOTAL OF         11 INNER ITERATIONS.
    ------------------------------------------------

 NO OUTPUT CONTROL FOR STRESS PERIOD   25   TIME STEP   14
 
 SOLVING FOR HEAD 
                                                   Max.-Head-Change                         Max.-Flux-Residual
  Residual-Control   Outer-Iter.   Inner-Iter.     Column Row Layer    Maximum-Head-Change  Column Row Layer    Maximum-Flux-Residual          L2-NORM 
          0                 1           2             3    7     1       0.2922119614E-01       4    6    1        -0.1013501469E+01      0.3522993159E+01
          0                 2           2             4    6     1      -0.5097305318E-02       4    6    1        -0.2717349175E+00      0.4848593981E+00
          0                 3           2             4    6     1      -0.1405982312E-02       4    6    1        -0.7561442280E-01      0.1037028040E+00
          0                 4           2             4    6     1      -0.3880188632E-03       4    6    1        -0.2081464763E-01      0.2817187463E-01
          0                 5           1             4    6     1      -0.1071402199E-03       4    6    1        -0.5746682921E-02      0.7862032103E-02
          0                 6           1             4    6     1      -0.2959857819E-04       4    6    1        -0.1586976614E-02      0.2195725568E-02

    ------------------------------------------------
       NWT REQUIRED            6 OUTER ITERATIONS 
       AND A TOTAL OF         10 INNER ITERATIONS.
    ------------------------------------------------

 NO OUTPUT CONTROL FOR STRESS PERIOD   25   TIME STEP   15
 
 SOLVING FOR HEAD 
                                                   Max.-Head-Change                         Max.-Flux-Residual
  Residual-Control   Outer-Iter.   Inner-Iter.     Column Row Layer    Maximum-Head-Change  Column Row Layer    Maximum-Flux-Residual          L2-NORM 
          0                 1           2             3    7     1       0.2864688671E-01       4    6    1        -0.9440346239E+00      0.3438857754E+01
          0                 2           2             4    6     1      -0.4747850362E-02       4    6    1        -0.2529729721E+00      0.4646605050E+00
          0                 3           2             4    6     1      -0.1310068866E-02       4    6    1        -0.7044191654E-01      0.9754126549E-01
          0                 4           2             4    6     1      -0.3616755712E-03       4    6    1        -0.1939639169E-01      0.2643932938E-01
          0                 5           1             4    6     1      -0.9989993468E-04       4    6    1        -0.5357026357E-02      0.7378722110E-02

    ------------------------------------------------
       NWT REQUIRED            5 OUTER ITERATIONS 
       AND A TOTAL OF          9 INNER ITERATIONS.
    ------------------------------------------------

 NO OUTPUT CONTROL FOR STRESS PERIOD   25   TIME STEP   16
 
 SOLVING FOR HEAD 
                                                   Max.-Head-Change                         Max.-Flux-Residual
  Residual-Control   Outer-Iter.   Inner-Iter.     Column Row Layer    Maximum-Head-Change  Column Row Layer    Maximum-Flux-Residual          L2-NORM 
          0                 1           2             3    7     1       0.2808686766E-01       4    6    1        -0.8791589831E+00      0.3360062923E+01
          0                 2           2             4    6     1      -0.4421086590E-02       4    6    1        -0.2354383161E+00      0.4458330050E+00
          0                 3           2             4    6     1      -0.1220321237E-02       4    6    1        -0.6560437359E-01      0.9173201398E-01
          0                 4           2             4    6     1      -0.3370091096E-03       4    6    1        -0.1806906454E-01      0.2480150610E-01
          0                 5           1             4    6     1      -0.9311605168E-04       4    6    1        -0.4992107354E-02      0.6921374805E-02

    ------------------------------------------------
       NWT REQUIRED            5 OUTER ITERATIONS 
       AND A TOTAL OF          9 INNER ITERATIONS.
    ------------------------------------------------

 NO OUTPUT CONTROL FOR STRESS PERIOD   25   TIME STEP   17
 
 SOLVING FOR HEAD 
                                                   Max.-Head-Change                         Max.-Flux-Residual
  Residual-Control   Outer-Iter.   Inner-Iter.     Column Row Layer    Maximum-Head-Change  Column Row Layer    Maximum-Flux-Residual          L2-NORM 
          0                 1           2             3    7     1       0.2754064793E-01       4    5    1         0.8225242731E+00      0.3286153145E+01
          0                 2           2             4    6     1      -0.4115039501E-02       4    6    1        -0.2190235097E+00      0.4282739103E+00
          0                 3           2             4    6     1      -0.1136207092E-02       4    6    1        -0.6107271042E-01      0.8624827619E-01
          0                 4           2             4    6     1      -0.3138758281E-03       4    6    1        -0.1682483217E-01      0.2325109940E-01
          0                 5           1             4    6     1      -0.8674977020E-04       4    6    1        -0.4649811048E-02      0.6488019764E-02

    ------------------------------------------------
       NWT REQUIRED            5 OUTER ITERATIONS 
       AND A TOTAL OF          9 INNER ITERATIONS.
    ------------------------------------------------

 NO OUTPUT CONTROL FOR STRESS PERIOD   25   TIME STEP   18
 
 SOLVING FOR HEAD 
                                                   Max.-Head-Change                         Max.-Flux-Residual
  Residual-Control   Outer-Iter.   Inner-Iter.     Column Row Layer    Maximum-Head-Change  Column Row Layer    Maximum-Flux-Residual          L2-NORM 
          0                 1           2             3    7     1       0.2700863978E-01       4    5    1         0.7892092950E+00      0.3216752111E+01
          0                 2           2             4    6     1      -0.3828189003E-02       4    6    1        -0.2036457576E+00      0.4119026076E+00
          0                 3           2             4    6     1      -0.1057317156E-02       4    6    1        -0.5682454485E-01      0.8107041893E-01
          0                 4           2             4    6     1      -0.2921654332E-03       4    6    1        -0.1565767382E-01      0.2178275545E-01
          0                 5           1             4    6     1      -0.8077134280E-04       4    6    1        -0.4328514387E-02      0.6077218061E-02

    ------------------------------------------------
       NWT REQUIRED            5 OUTER ITERATIONS 
       AND A TOTAL OF          9 INNER ITERATIONS.
    ------------------------------------------------

 NO OUTPUT CONTROL FOR STRESS PERIOD   25   TIME STEP   19
 
 SOLVING FOR HEAD 
                                                   Max.-Head-Change                         Max.-Flux-Residual
  Residual-Control   Outer-Iter.   Inner-Iter.     Column Row Layer    Maximum-Head-Change  Column Row Layer    Maximum-Flux-Residual          L2-NORM 
          0                 1           2             3    7     1       0.2649022490E-01       4    5    1         0.7582344750E+00      0.3151519432E+01
          0                 2           2             4    6     1      -0.3559146336E-02       4    6    1        -0.1892294675E+00      0.3966456184E+00
          0                 3           2             4    6     1      -0.9832772206E-03       4    6    1        -0.5283942362E-01      0.7618085982E-01
          0                 4           2             4    6     1      -0.2717770012E-03       4    6    1        -0.1456208338E-01      0.2039163864E-01
          0                 5           1             4    6     1      -0.7515352424E-04       4    6    1        -0.4026731772E-02      0.5687663194E-02

    ------------------------------------------------
       NWT REQUIRED            5 OUTER ITERATIONS 
       AND A TOTAL OF          9 INNER ITERATIONS.
    ------------------------------------------------

 NO OUTPUT CONTROL FOR STRESS PERIOD   25   TIME STEP   20
 
 SOLVING FOR HEAD 
                                                   Max.-Head-Change                         Max.-Flux-Residual
  Residual-Control   Outer-Iter.   Inner-Iter.     Column Row Layer    Maximum-Head-Change  Column Row Layer    Maximum-Flux-Residual          L2-NORM 
          0                 1           2             3    7     1       0.2598572848E-01       4    5    1         0.7294208023E+00      0.3090147701E+01
          0                 2           2             4    6     1      -0.3306567554E-02       4    6    1        -0.1757016055E+00      0.3824332565E+00
          0                 3           2             4    6     1      -0.9137244418E-03       4    6    1        -0.4909754210E-01      0.7156280363E-01
          0                 4           2             4    6     1      -0.2526124844E-03       4    6    1        -0.1353271915E-01      0.1907308472E-01
          0                 5           1             4    6     1      -0.6986979890E-04       4    6    1        -0.3743019283E-02      0.5318093792E-02

    ------------------------------------------------
       NWT REQUIRED            5 OUTER ITERATIONS 
       AND A TOTAL OF          9 INNER ITERATIONS.
    ------------------------------------------------

 NO OUTPUT CONTROL FOR STRESS PERIOD   25   TIME STEP   21
 
 SOLVING FOR HEAD 
                                                   Max.-Head-Change                         Max.-Flux-Residual
  Residual-Control   Outer-Iter.   Inner-Iter.     Column Row Layer    Maximum-Head-Change  Column Row Layer    Maximum-Flux-Residual          L2-NORM 
          0                 1           2             3    7     1       0.2549470352E-01       6    8    1         0.7139871596E+00      0.3032355908E+01
          0                 2           2             4    6     1      -0.3069333141E-02       4    6    1        -0.1630012732E+00      0.3692062182E+00
          0                 3           2             4    6     1      -0.8483569352E-03       4    6    1        -0.4558240866E-01      0.6720349423E-01
          0                 4           2             4    6     1      -0.2345904094E-03       4    6    1        -0.1256513838E-01      0.1782354799E-01
          0                 5           1             4    6     1      -0.6489815936E-04       4    6    1        -0.3476177435E-02      0.4967549026E-02

    ------------------------------------------------
       NWT REQUIRED            5 OUTER ITERATIONS 
       AND A TOTAL OF          9 INNER ITERATIONS.
    ------------------------------------------------

 NO OUTPUT CONTROL FOR STRESS PERIOD   25   TIME STEP   22
 
 SOLVING FOR HEAD 
                                                   Max.-Head-Change                         Max.-Flux-Residual
  Residual-Control   Outer-Iter.   Inner-Iter.     Column Row Layer    Maximum-Head-Change  Column Row Layer    Maximum-Flux-Residual          L2-NORM 
          0                 1           2             3    7     1       0.2501716535E-01       6    8    1         0.7020196734E+00      0.2977881769E+01
          0                 2           2             4    6     1      -0.2846307265E-02       4    6    1        -0.1510667764E+00      0.3569044930E+00
          0                 3           2             4    6     1      -0.7868676938E-03       4    6    1        -0.4227728179E-01      0.6308955859E-01
          0                 4           2             4    6     1      -0.2176277189E-03       4    6    1        -0.1165481989E-01      0.1663925115E-01
          0                 5           1             4    6     1      -0.6021611539E-04       4    6    1        -0.3224982655E-02      0.4634999037E-02

    ------------------------------------------------
       NWT REQUIRED            5 OUTER ITERATIONS 
       AND A TOTAL OF          9 INNER ITERATIONS.
    ------------------------------------------------

 NO OUTPUT CONTROL FOR STRESS PERIOD   25   TIME STEP   23
 
 SOLVING FOR HEAD 
                                                   Max.-Head-Change                         Max.-Flux-Residual
  Residual-Control   Outer-Iter.   Inner-Iter.     Column Row Layer    Maximum-Head-Change  Column Row Layer    Maximum-Flux-Residual          L2-NORM 
          0                 1           2             3    7     1       0.2455285752E-01       6    8    1         0.6904700876E+00      0.2926481424E+01
          0                 2           2             4    6     1      -0.2636487019E-02       4    6    1        -0.1398436838E+00      0.3454747415E+00
          0                 3           2             4    6     1      -0.7289856671E-03       4    6    1        -0.3916737633E-01      0.5921039879E-01
          0                 4           2             4    6     1      -0.2016510973E-03       4    6    1        -0.1079777236E-01      0.1551719110E-01
          0                 5           1             4    6     1      -0.5580381994E-04       4    6    1        -0.2988354914E-02      0.4319626074E-02

    ------------------------------------------------
       NWT REQUIRED            5 OUTER ITERATIONS 
       AND A TOTAL OF          9 INNER ITERATIONS.
    ------------------------------------------------

 NO OUTPUT CONTROL FOR STRESS PERIOD   25   TIME STEP   24
 
 SOLVING FOR HEAD 
                                                   Max.-Head-Change                         Max.-Flux-Residual
  Residual-Control   Outer-Iter.   Inner-Iter.     Column Row Layer    Maximum-Head-Change  Column Row Layer    Maximum-Flux-Residual          L2-NORM 
          0                 1           2             3    7     1       0.2410174695E-01       6    8    1         0.6793242472E+00      0.2877949705E+01
          0                 2           2             4    6     1      -0.2439021501E-02       4    6    1        -0.1292858592E+00      0.3348690966E+00
          0                 3           2             4    6     1      -0.6744803166E-03       4    6    1        -0.3624014227E-01      0.5555719540E-01
          0                 4           2             4    6     1      -0.1865980348E-03       4    6    1        -0.9990598648E-02      0.1445483644E-01
          0                 5           1             4    6     1      -0.5164431009E-04       4    6    1        -0.2765372756E-02      0.4020736545E-02

    ------------------------------------------------
       NWT REQUIRED            5 OUTER ITERATIONS 
       AND A TOTAL OF          9 INNER ITERATIONS.
    ------------------------------------------------

 NO OUTPUT CONTROL FOR STRESS PERIOD   25   TIME STEP   25
 
 SOLVING FOR HEAD 
                                                   Max.-Head-Change                         Max.-Flux-Residual
  Residual-Control   Outer-Iter.   Inner-Iter.     Column Row Layer    Maximum-Head-Change  Column Row Layer    Maximum-Flux-Residual          L2-NORM 
          0                 1           2             3    7     1       0.2366305635E-01       6    8    1         0.6685683329E+00      0.2832089911E+01
          0                 2           2             3    7     1      -0.2327610242E-02       4    6    1        -0.1193452636E+00      0.3250407472E+00
          0                 3           2             4    6     1      -0.6231125919E-03       4    6    1        -0.3348253812E-01      0.5212175569E-01
          0                 4           2             4    6     1      -0.1724038816E-03       4    6    1        -0.9229778786E-02      0.1344983313E-01
          0                 5           1             4    6     1      -0.4772008583E-04       4    6    1        -0.2555083899E-02      0.3737686021E-02

    ------------------------------------------------
       NWT REQUIRED            5 OUTER ITERATIONS 
       AND A TOTAL OF          9 INNER ITERATIONS.
    ------------------------------------------------

 NO OUTPUT CONTROL FOR STRESS PERIOD   25   TIME STEP   26
 
 SOLVING FOR HEAD 
                                                   Max.-Head-Change                         Max.-Flux-Residual
  Residual-Control   Outer-Iter.   Inner-Iter.     Column Row Layer    Maximum-Head-Change  Column Row Layer    Maximum-Flux-Residual          L2-NORM 
          0                 1           2             3    7     1       0.2323697375E-01       6    8    1         0.6581816012E+00      0.2788708215E+01
          0                 2           2             3    7     1      -0.2284784174E-02       4    6    1        -0.1099775720E+00      0.3159434378E+00
          0                 3           2             4    6     1      -0.5746600512E-03       4    6    1        -0.3088247815E-01      0.4889661580E-01
          0                 4           2             4    6     1      -0.1590081696E-03       4    6    1        -0.8512032671E-02      0.1250002473E-01
          0                 5           1             4    6     1      -0.4401469785E-04       4    6    1        -0.2356596372E-02      0.3469877682E-02

    ------------------------------------------------
       NWT REQUIRED            5 OUTER ITERATIONS 
       AND A TOTAL OF          9 INNER ITERATIONS.
    ------------------------------------------------

 NO OUTPUT CONTROL FOR STRESS PERIOD   25   TIME STEP   27
 
 SOLVING FOR HEAD 
                                                   Max.-Head-Change                         Max.-Flux-Residual
  Residual-Control   Outer-Iter.   Inner-Iter.     Column Row Layer    Maximum-Head-Change  Column Row Layer    Maximum-Flux-Residual          L2-NORM 
          0                 1           2             3    7     1       0.2282293918E-01       6    8    1         0.6481656458E+00      0.2747644155E+01
          0                 2           2             3    7     1      -0.2243153626E-02       4    6    1        -0.1011462292E+00      0.3075384262E+00
          0                 3           2             4    6     1      -0.5289403890E-03       4    6    1        -0.2843001982E-01      0.4587758259E-01
          0                 4           2             4    6     1      -0.1463615658E-03       4    6    1        -0.7834675439E-02      0.1160425685E-01
          0                 5           1             4    6     1      -0.4051478572E-04       4    6    1        -0.2169183365E-02      0.3217000557E-02

    ------------------------------------------------
       NWT REQUIRED            5 OUTER ITERATIONS 
       AND A TOTAL OF          9 INNER ITERATIONS.
    ------------------------------------------------

 NO OUTPUT CONTROL FOR STRESS PERIOD   25   TIME STEP   28
 
 SOLVING FOR HEAD 
                                                   Max.-Head-Change                         Max.-Flux-Residual
  Residual-Control   Outer-Iter.   Inner-Iter.     Column Row Layer    Maximum-Head-Change  Column Row Layer    Maximum-Flux-Residual          L2-NORM 
          0                 1           2             3    7     1       0.2242112182E-01       6    8    1         0.6384997835E+00      0.2708747585E+01
          0                 2           2             3    7     1      -0.2202736548E-02       4    6    1        -0.9281346228E-01      0.2997851479E+00
          0                 3           2             4    6     1      -0.4857635118E-03       4    6    1        -0.2611484817E-01      0.4305951769E-01
          0                 4           2             4    6     1      -0.1344123056E-03       4    6    1        -0.7194902676E-02      0.1076109762E-01
          0                 5           1             4    6     1      -0.3720624218E-04       4    6    1        -0.1992080955E-02      0.2978653473E-02

    ------------------------------------------------
       NWT REQUIRED            5 OUTER ITERATIONS 
       AND A TOTAL OF          9 INNER ITERATIONS.
    ------------------------------------------------

 NO OUTPUT CONTROL FOR STRESS PERIOD   25   TIME STEP   29
 
 SOLVING FOR HEAD 
                                                   Max.-Head-Change                         Max.-Flux-Residual
  Residual-Control   Outer-Iter.   Inner-Iter.     Column Row Layer    Maximum-Head-Change  Column Row Layer    Maximum-Flux-Residual          L2-NORM 
          0                 1           2             3    7     1       0.2203070226E-01       6    8    1         0.6290798019E+00      0.2671794671E+01
          0                 2           2             3    7     1      -0.2163455831E-02       4    6    1        -0.8494869600E-01      0.2926405155E+00
          0                 3           2             4    6     1      -0.4449770235E-03       4    6    1        -0.2392865074E-01      0.4044030112E-01
          0                 4           2             4    6     1      -0.1231191565E-03       4    6    1        -0.6590470183E-02      0.9970229039E-02
          0                 5           1             4    7     1      -0.3413973448E-04       4    6    1        -0.1824681697E-02      0.2754758697E-02

    ------------------------------------------------
       NWT REQUIRED            5 OUTER ITERATIONS 
       AND A TOTAL OF          9 INNER ITERATIONS.
    ------------------------------------------------

 NO OUTPUT CONTROL FOR STRESS PERIOD   25   TIME STEP   30



 STREAM LISTING     PERIOD     25   STEP       30

 LAYER ROW COL. STREAM  RCH.  FLOW INTO     FLOW TO   FLOW OUT OF   OVRLND.     DIRECT     STREAM       STREAM     STREAM     STREAM   STREAMBED  STREAMBED
                SEG.NO.  NO.  STRM. RCH.    AQUIFER    STRM. RCH.    RUNOFF     PRECIP       ET          HEAD       DEPTH      WIDTH   CONDCTNC.   GRADIENT

   1    1    1     1     1    7.4712E+00  1.2395E-01   7.3473E+00  0.000E+00  0.000E+00  0.000E+00  1.09386E+03  8.152E-01  7.220E+00  3.249E-02  1.272E+00
   1    2    2     1     2    7.3473E+00  1.9029E-01   7.1570E+00  0.000E+00  0.000E+00  0.000E+00  1.08887E+03  8.094E-01  7.136E+00  4.995E-02  1.270E+00
   1    3    3     1     3    7.1570E+00  1.6067E-01   6.9963E+00  0.000E+00  0.000E+00  0.000E+00  1.08322E+03  8.029E-01  7.042E+00  4.225E-02  1.268E+00
   1    3    4     1     4    6.9963E+00  1.4674E-01   6.8496E+00  0.000E+00  0.000E+00  0.000E+00  1.07821E+03  7.979E-01  6.962E+00  3.864E-02  1.266E+00
   1    4    5     2     1    4.8496E+00  2.6862E-01   4.5810E+00  0.000E+00  0.000E+00  0.000E+00  1.07238E+03  4.439E-01  1.200E+01  7.800E-02  1.148E+00
   1    5    6     2     2    4.5810E+00  2.0582E-01   4.3752E+00  0.000E+00  0.000E+00  0.000E+00  1.06694E+03  4.303E-01  1.200E+01  6.000E-02  1.143E+00
   1    6    6     2     3    4.3752E+00  2.0510E-01   4.1701E+00  0.000E+00  0.000E+00  0.000E+00  1.06221E+03  4.184E-01  1.200E+01  6.000E-02  1.139E+00
   1    7    6     2     4    4.1701E+00  2.0437E-01   3.9657E+00  0.000E+00  0.000E+00  0.000E+00  1.05748E+03  4.062E-01  1.200E+01  6.000E-02  1.135E+00
   1    8    6     2     5    3.9657E+00  2.0363E-01   3.7620E+00  0.000E+00  0.000E+00  0.000E+00  1.05275E+03  3.939E-01  1.200E+01  6.000E-02  1.131E+00
   1    3    5     3     1    2.0000E+00  2.8252E-01   1.7175E+00  0.000E+00  0.000E+00  0.000E+00  1.07555E+03  1.909E+00  9.636E+00  7.227E-02  1.955E+00
   1    3    6     3     2    1.7175E+00  2.4905E-01   1.4684E+00  0.000E+00  0.000E+00  0.000E+00  1.07264E+03  1.727E+00  8.909E+00  6.682E-02  1.864E+00
   1    3    7     3     3    1.4684E+00  1.9718E-01   1.2712E+00  0.000E+00  0.000E+00  0.000E+00  1.06987E+03  1.555E+00  8.218E+00  5.547E-02  1.777E+00
   1    4    8     3     4    1.2712E+00  2.2567E-01   1.0456E+00  0.000E+00  0.000E+00  0.000E+00  1.06682E+03  1.364E+00  7.455E+00  6.709E-02  1.682E+00
   1    5    8     3     5    1.0456E+00  1.5790E-01   8.8768E-01  0.000E+00  0.000E+00  0.000E+00  1.06362E+03  1.164E+00  6.655E+00  4.991E-02  1.582E+00
   1    6    8     3     6    8.8768E-01  5.5980E-02   8.3170E-01  0.000E+00  0.000E+00  0.000E+00  1.06158E+03  1.036E+00  6.145E+00  1.844E-02  1.518E+00
   1    5   10     4     1    1.0000E+01  9.0919E-02   9.9091E+00  0.000E+00  0.000E+00  0.000E+00  1.07836E+03  6.368E-01  1.000E+01  2.500E-02  1.212E+00
   1    5    9     4     2    9.9091E+00  1.8158E-01   9.7275E+00  0.000E+00  0.000E+00  0.000E+00  1.07154E+03  6.315E-01  1.000E+01  5.000E-02  1.211E+00
   1    6    8     4     3    9.7275E+00  1.2689E-01   9.6006E+00  0.000E+00  0.000E+00  0.000E+00  1.06381E+03  6.256E-01  1.000E+01  3.500E-02  1.209E+00
   1    6    8     5     1    1.0432E+01  2.2686E-01   1.0205E+01  0.000E+00  0.000E+00  0.000E+00  1.05868E+03  6.790E-01  1.542E+01  6.166E-02  1.226E+00
   1    7    7     5     2    1.0205E+01  2.7894E-01   9.9265E+00  0.000E+00  0.000E+00  0.000E+00  1.05417E+03  6.732E-01  1.519E+01  7.594E-02  1.224E+00
   1    8    7     5     3    9.9265E+00  1.9221E-01   9.7343E+00  0.000E+00  0.000E+00  0.000E+00  1.04992E+03  6.676E-01  1.497E+01  5.241E-02  1.223E+00
   1    8    6     5     4    9.7343E+00  1.3577E-01   9.5985E+00  0.000E+00  0.000E+00  0.000E+00  1.04691E+03  6.637E-01  1.482E+01  3.706E-02  1.221E+00
   1    9    6     6     1    1.3361E+01  2.3005E-01   1.3131E+01  0.000E+00  0.000E+00  0.000E+00  1.04356E+03  8.341E-01  1.200E+01  6.000E-02  1.278E+00
   1   10    7     6     2    1.3131E+01  2.2952E-01   1.2901E+01  0.000E+00  0.000E+00  0.000E+00  1.03901E+03  8.254E-01  1.200E+01  6.000E-02  1.275E+00
   1   11    7     6     3    1.2901E+01  2.2900E-01   1.2672E+01  0.000E+00  0.000E+00  0.000E+00  1.03445E+03  8.166E-01  1.200E+01  6.000E-02  1.272E+00
   1   12    7     6     4    1.2672E+01  2.2847E-01   1.2444E+01  0.000E+00  0.000E+00  0.000E+00  1.02990E+03  8.078E-01  1.200E+01  6.000E-02  1.269E+00
   1   13    7     6     5    1.2444E+01  8.2436E-03   1.2435E+01  0.000E+00  0.000E+00  0.000E+00  1.02671E+03  8.033E-01  1.200E+01  2.400E-02  1.145E-01
   1   14    9     7     1    1.5000E+02  1.3956E+00   1.4860E+02  0.000E+00  0.000E+00  0.000E+00  1.03987E+03  2.288E+00  5.529E+01  5.593E-01  8.318E-01
   1   13    8     7     2    1.4860E+02  2.0477E+00   1.4656E+02  0.000E+00  0.000E+00  0.000E+00  1.03478E+03  2.278E+00  5.525E+01  6.147E-01  1.110E+00
   1   13    7     7     3    1.4656E+02  1.8528E+00   1.4470E+02  0.000E+00  0.000E+00  0.000E+00  1.02969E+03  2.268E+00  5.521E+01  5.583E-01  1.106E+00
   1   13    6     8     1    1.5714E+02  1.2289E+00   1.5591E+02  0.000E+00  0.000E+00  0.000E+00  1.02474E+03  2.862E+00  4.150E+01  4.229E-01  9.686E-01
   1   13    5     8     2    1.5591E+02  4.7605E-01   1.5543E+02  0.000E+00  0.000E+00  0.000E+00  1.01848E+03  2.856E+00  4.142E+01  4.221E-01  3.760E-01
   1   13    4     8     3    1.5543E+02 -1.3889E+00   1.5682E+02  0.000E+00  0.000E+00  0.000E+00  1.01223E+03  2.859E+00  4.146E+01  4.225E+00 -1.096E-01
   1   13    3     8     4    1.5682E+02 -3.1396E+00   1.5996E+02  0.000E+00  0.000E+00  0.000E+00  1.00600E+03  2.875E+00  4.169E+01  4.248E+00 -2.464E-01
   1   13    2     8     5    1.5996E+02 -2.4626E+00   1.6243E+02  0.000E+00  0.000E+00  0.000E+00  9.99769E+02  2.894E+00  4.196E+01  4.276E+00 -1.920E-01
   1   13    1     8     6    1.6243E+02 -1.9552E+00   1.6438E+02  0.000E+00  0.000E+00  0.000E+00  9.94784E+02  2.909E+00  4.218E+01  2.579E+00 -2.527E-01
   1    8    6     9     1    0.0000E+00  0.0000E+00   0.0000E+00  0.000E+00  0.000E+00  0.000E+00  1.07875E+03  0.000E+00  4.000E+00  0.000E+00  1.000E+00
   1    8    5     9     2    0.0000E+00  0.0000E+00   0.0000E+00  0.000E+00  0.000E+00  0.000E+00  1.07825E+03  0.000E+00  4.000E+00  0.000E+00  1.000E+00





UNSATURATED ZONE PACKAGE VOLUMETRIC BUDGET FOR  TIME STEP    30 STRESS PERIOD   25
  ------------------------------------------------------------------------------



     CUMULATIVE VOLUMES      L**3       RATES FOR THIS TIME STEP      L**3/T
     ------------------                 ------------------------

           IN:                                      IN:
           ---                                      ---
        INFILTRATION =  6663064300.4127          INFILTRATION =           0.8475

          OUT:                                     OUT:
          ----                                     ----
              UZF ET =   862597129.1717                UZF ET =           0.7500
        UZF RECHARGE =  5340948094.7466          UZF RECHARGE =           5.9211

            IN - OUT =   459519076.4944              IN - OUT =          -5.8236

          STORAGE:                                 STORAGE:
          --------                                 --------
      STORAGE CHANGE =   460231008.3911        STORAGE CHANGE =          -5.8236

 PERCENT DISCREPANCY IS DIFFERENCE BETWEEN IN-OUT MINUS CHANGE IN STORAGE
 DIVIDED BY THE AVERAGE OF IN AND OUT TIMES 100

 PERCENT DISCREPANCY =          -0.00     PERCENT DISCREPANCY =           0.00






1
  VOLUMETRIC BUDGET FOR AGRICULTURAL FIELDS AT  END OF TIME STEP   30, STRESS PERIOD  25
  ------------------------------------------------------------------------------

     CUMULATIVE VOLUMES      L**3       RATES FOR THIS TIME STEP      L**3/T
     ------------------                 ------------------------

           IN:                                      IN:
           ---                                      ---
               AG WELLS  =  6318206976.0000                 AG WELLS  =           0.0000
      DIVERSION SEGMENTS =   291316640.0000        DIVERSION SEGMENTS =           0.0000
           GW IRRIGATION =           0.0000             GW IRRIGATION =           0.0000
           SW IRRIGATION =           0.0000             SW IRRIGATION =           0.0000
        SYSTEM LOSSES GW =           0.0000          SYSTEM LOSSES GW =           0.0000
        SYSTEM LOSSES SW =           0.0000          SYSTEM LOSSES SW =           0.0000

                TOTAL IN =  6609523712.0000                  TOTAL IN =           0.0000

          OUT:                                     OUT:
          ----                                     ----
               AG WELLS  =           0.0000                 AG WELLS  =           0.0000
      DIVERSION SEGMENTS =           0.0000        DIVERSION SEGMENTS =           0.0000
           GW IRRIGATION =  6318206976.0000             GW IRRIGATION =           0.0000
           SW IRRIGATION =   291322048.0000             SW IRRIGATION =           0.0000
        SYSTEM LOSSES GW =           0.0000          SYSTEM LOSSES GW =           0.0000
        SYSTEM LOSSES SW =           0.0000          SYSTEM LOSSES SW =           0.0000

               TOTAL OUT =  6609528832.0000                 TOTAL OUT =           0.0000

                IN - OUT =       -5120.0000                  IN - OUT =           0.0000

     PERCENT DISCREPANCY =          -0.00         PERCENT DISCREPANCY =           0.00



1
  VOLUMETRIC BUDGET FOR ENTIRE MODEL AT END OF TIME STEP   30, STRESS PERIOD  25
  ------------------------------------------------------------------------------

     CUMULATIVE VOLUMES      L**3       RATES FOR THIS TIME STEP      L**3/T
     ------------------                 ------------------------

           IN:                                      IN:
           ---                                      ---
             STORAGE     =  5799891456.0000               STORAGE     =           4.7983
       CONSTANT HEAD     =           0.0000         CONSTANT HEAD     =           0.0000
     HEAD DEP BOUNDS     =    18231476.0000       HEAD DEP BOUNDS     =           0.2898
      STREAM LEAKAGE     =   760610752.0000        STREAM LEAKAGE     =          12.0370
        UZF RECHARGE     =  5340945920.0000          UZF RECHARGE     =           5.9211
               GW ET     =           0.0000                 GW ET     =           0.0000
     SURFACE LEAKAGE     =           0.0000       SURFACE LEAKAGE     =           0.0000
           AG WELLS      =           0.0000             AG WELLS      =           0.0000

                TOTAL IN = 11919679488.0000                  TOTAL IN =          23.0462

          OUT:                                     OUT:
          ----                                     ----
             STORAGE     =  4971016192.0000               STORAGE     =          13.8145
       CONSTANT HEAD     =           0.0000         CONSTANT HEAD     =           0.0000
     HEAD DEP BOUNDS     =    18195774.0000       HEAD DEP BOUNDS     =           0.2866
      STREAM LEAKAGE     =   612185472.0000        STREAM LEAKAGE     =           8.9463
        UZF RECHARGE     =           0.0000          UZF RECHARGE     =           0.0000
               GW ET     =           0.0000                 GW ET     =           0.0000
     SURFACE LEAKAGE     =           0.0000       SURFACE LEAKAGE     =           0.0000
           AG WELLS      =  6318206976.0000             AG WELLS      =           0.0000

               TOTAL OUT = 11919604736.0000                 TOTAL OUT =          23.0474

                IN - OUT =       74752.0000                  IN - OUT =      -1.2112E-03

     PERCENT DISCREPANCY =           0.00         PERCENT DISCREPANCY =          -0.01






         TIME SUMMARY AT END OF TIME STEP   30 IN STRESS PERIOD   25
                    SECONDS     MINUTES      HOURS       DAYS        YEARS
                    -----------------------------------------------------------
   TIME STEP LENGTH  87667.      1461.1      24.352      1.0147     2.77799E-03
 STRESS PERIOD TIME 2.63000E+06  43833.      730.56      30.440     8.33397E-02
         TOTAL TIME 6.32067E+07 1.05345E+06  17557.      731.56      2.0029    
1
1
                            STRESS PERIOD NO.   26, LENGTH =   2630000.    
                            -----------------------------------------------

                              NUMBER OF TIME STEPS =    30

                               MULTIPLIER FOR DELT =     1.000

                            INITIAL TIME STEP SIZE =   87666.66    

 REUSING NON-PARAMETER GHB CELLS FROM LAST STRESS PERIOD

      2 GHB CELLS

 REUSING STREAM SEGMENT DATA FROM LAST STRESS PERIOD



            AREAL INFILTRATION RATE
 READING ON UNIT   19 WITH FORMAT: (FREE)              

            1           2           3           4           5           6           7           8           9          10
 ........................................................................................................................
   1   1.0000E-10  2.0000E-10   0.000       0.000       0.000       0.000       0.000       0.000       0.000       0.000    
   2   2.0000E-10  1.0000E-10  2.0000E-10   0.000       0.000      8.0000E-10  8.0000E-10  5.0000E-10   0.000       0.000    
   3    0.000      5.0000E-10  1.0000E-10  1.0000E-10  8.0000E-10  8.0000E-10  5.0000E-10  5.0000E-10   0.000       0.000    
   4   8.0000E-10  5.0000E-10  1.0000E-10  1.0000E-10  1.0000E-10  1.0000E-10  1.0000E-10  1.0000E-10  2.0000E-10   0.000    
   5   8.0000E-10  5.0000E-10  1.0000E-10  1.0000E-10  1.0000E-10  1.0000E-10  1.0000E-10  1.0000E-10  1.0000E-10  1.0000E-10
   6   8.0000E-10  5.0000E-10  5.0000E-10  2.0000E-10  2.0000E-10  1.0000E-10  1.0000E-10  1.0000E-10  1.0000E-10  5.0000E-10
   7   8.0000E-10  5.0000E-10  5.0000E-10  2.0000E-10  2.0000E-10  1.0000E-10  1.0000E-10  2.0000E-10  2.0000E-10   0.000    
   8    0.000      5.0000E-10  5.0000E-10  2.0000E-10  2.0000E-10  1.0000E-10  1.0000E-10  2.0000E-10  5.0000E-10   0.000    
   9    0.000      5.0000E-10  5.0000E-10  2.0000E-10  2.0000E-10  1.0000E-10  1.0000E-10  2.0000E-10  5.0000E-10   0.000    
  10    0.000      5.0000E-10  5.0000E-10  2.0000E-10  2.0000E-10  1.0000E-10  1.0000E-10  2.0000E-10  5.0000E-10  8.0000E-10
  11    0.000      1.0000E-10  1.0000E-10  1.0000E-10  1.0000E-10  1.0000E-10  1.0000E-10  2.0000E-10  5.0000E-10   0.000    
  12   1.0000E-10  1.0000E-10  1.0000E-10  1.0000E-10  1.0000E-10  1.0000E-10  1.0000E-10  1.0000E-10  2.0000E-10   0.000    
  13   1.0000E-10  1.0000E-10  2.0000E-10  2.0000E-10  2.0000E-10  2.0000E-10  2.0000E-10  1.0000E-10  1.0000E-10   0.000    
  14    0.000      2.0000E-10  5.0000E-10  5.0000E-10  5.0000E-10  5.0000E-10  5.0000E-10  2.0000E-10  1.0000E-10   0.000    
  15    0.000       0.000      8.0000E-10  8.0000E-10  8.0000E-10  8.0000E-10   0.000       0.000       0.000       0.000    

                  ET RATE =  5.000000E-10

 USING ET EXTINCTION DEPTH FROM PREVIOUS STRESS PERIOD. CURRENT PERIOD IS:      26

 USING EXTINCTION WATER CONTENT FROM PREVIOUS STRESS PERIOD. CURRENT PERIOD IS:      26

 USING AIR ENTRY PRESSURE FROM PREVIOUS STRESS PERIOD. CURRENT PERIOD IS:      26

 USING ROOT PRESSURE HEAD FROM PREVIOUS STRESS PERIOD. CURRENT PERIOD IS:      26

 USING ROOT ACTIVITY FROM PREVIOUS STRESS PERIOD. CURRENT PERIOD IS:      26

 PROCESSING AG STRESS PERIOD DATA

 READING AG STRESS PERIOD DATA

 READING IRRIGATION SEGMENT

 READING IRRIGATION WELL

 READING SUPPLEMENTAL WELL

 END PROCESSING AG STRESS PERIOD DATA OPTIONS
 
 SOLVING FOR HEAD 
                                                   Max.-Head-Change                         Max.-Flux-Residual
  Residual-Control   Outer-Iter.   Inner-Iter.     Column Row Layer    Maximum-Head-Change  Column Row Layer    Maximum-Flux-Residual          L2-NORM 
          0                 1           2             3    7     1       0.2165184383E-01       6    8    1         0.6188715605E+00      0.2635887885E+01
          0                 2           2             3    7     1      -0.2125327202E-02       4    7    1        -0.7931452948E-01      0.2859944825E+00
          0                 3           2             4    7     1      -0.4141241256E-03       4    7    1        -0.2218414661E-01      0.3801363742E-01
          0                 4           2             4    7     1      -0.1148632937E-03       4    7    1        -0.6139745830E-02      0.9230886137E-02
          0                 5           1             4    7     1      -0.3186612817E-04       4    7    1        -0.1703494439E-02      0.2545123118E-02

    ------------------------------------------------
       NWT REQUIRED            5 OUTER ITERATIONS 
       AND A TOTAL OF          9 INNER ITERATIONS.
    ------------------------------------------------

 NO OUTPUT CONTROL FOR STRESS PERIOD   26   TIME STEP    1
 
 SOLVING FOR HEAD 
                                                   Max.-Head-Change                         Max.-Flux-Residual
  Residual-Control   Outer-Iter.   Inner-Iter.     Column Row Layer    Maximum-Head-Change  Column Row Layer    Maximum-Flux-Residual          L2-NORM 
          0                 1           2             3    7     1       0.2128397002E-01       6    8    1         0.6137853195E+00      0.2605631180E+01
          0                 2           2             3    7     1      -0.2088296940E-02       4    7    1        -0.7422055614E-01      0.2802565949E+00
          0                 3           2             4    7     1      -0.3865483055E-03       4    7    1        -0.2073463772E-01      0.3577540179E-01
          0                 4           1             4    7     1      -0.1070325159E-03       4    7    1        -0.5728254677E-02      0.8533104550E-02
          0                 5           1             4    7     1      -0.2964307082E-04       4    7    1        -0.1586643560E-02      0.2345966350E-02

    ------------------------------------------------
       NWT REQUIRED            5 OUTER ITERATIONS 
       AND A TOTAL OF          8 INNER ITERATIONS.
    ------------------------------------------------

 NO OUTPUT CONTROL FOR STRESS PERIOD   26   TIME STEP    2
 
 SOLVING FOR HEAD 
                                                   Max.-Head-Change                         Max.-Flux-Residual
  Residual-Control   Outer-Iter.   Inner-Iter.     Column Row Layer    Maximum-Head-Change  Column Row Layer    Maximum-Flux-Residual          L2-NORM 
          0                 1           2             3    7     1       0.2092699616E-01       6    8    1         0.6055681138E+00      0.2574269463E+01
          0                 2           2             3    7     1      -0.2052355373E-02       4    7    1        -0.6924164407E-01      0.2747466320E+00
          0                 3           2             4    7     1      -0.3596389819E-03       4    7    1        -0.1931803761E-01      0.3373543667E-01
          0                 4           1             4    7     1      -0.9940832455E-04       4    7    1        -0.5326921831E-02      0.7895981422E-02

    ------------------------------------------------
       NWT REQUIRED            4 OUTER ITERATIONS 
       AND A TOTAL OF          7 INNER ITERATIONS.
    ------------------------------------------------

 NO OUTPUT CONTROL FOR STRESS PERIOD   26   TIME STEP    3
 
 SOLVING FOR HEAD 
                                                   Max.-Head-Change                         Max.-Flux-Residual
  Residual-Control   Outer-Iter.   Inner-Iter.     Column Row Layer    Maximum-Head-Change  Column Row Layer    Maximum-Flux-Residual          L2-NORM 
          0                 1           2             3    7     1       0.2058063198E-01       6    8    1         0.5973829379E+00      0.2544216647E+01
          0                 2           2             3    7     1      -0.2017479633E-02       4    7    1        -0.6439498130E-01      0.2697105426E+00
          0                 3           2             4    7     1      -0.3334963429E-03       4    7    1        -0.1794097298E-01      0.3189111787E-01
          0                 4           1             4    7     1      -0.9200637513E-04       4    7    1        -0.4936994944E-02      0.7313255597E-02

    ------------------------------------------------
       NWT REQUIRED            4 OUTER ITERATIONS 
       AND A TOTAL OF          7 INNER ITERATIONS.
    ------------------------------------------------

 NO OUTPUT CONTROL FOR STRESS PERIOD   26   TIME STEP    4
 
 SOLVING FOR HEAD 
                                                   Max.-Head-Change                         Max.-Flux-Residual
  Residual-Control   Outer-Iter.   Inner-Iter.     Column Row Layer    Maximum-Head-Change  Column Row Layer    Maximum-Flux-Residual          L2-NORM 
          0                 1           2             3    7     1       0.2024447895E-01       6    8    1         0.5894781431E+00      0.2515628164E+01
          0                 2           2             3    7     1      -0.1983627741E-02       4    7    1        -0.5966955498E-01      0.2651276172E+00
          0                 3           2             4    7     1      -0.3080518848E-03       4    7    1        -0.1660004581E-01      0.3024373475E-01
          0                 4           1             4    7     1      -0.8480785816E-04       4    7    1        -0.4557765113E-02      0.6786512289E-02

    ------------------------------------------------
       NWT REQUIRED            4 OUTER ITERATIONS 
       AND A TOTAL OF          7 INNER ITERATIONS.
    ------------------------------------------------

 NO OUTPUT CONTROL FOR STRESS PERIOD   26   TIME STEP    5
 
 SOLVING FOR HEAD 
                                                   Max.-Head-Change                         Max.-Flux-Residual
  Residual-Control   Outer-Iter.   Inner-Iter.     Column Row Layer    Maximum-Head-Change  Column Row Layer    Maximum-Flux-Residual          L2-NORM 
          0                 1           2             3    7     1       0.1991845951E-01       6    8    1         0.5818447914E+00      0.2488402254E+01
          0                 2           2             3    7     1      -0.1950791961E-02       6    8    1        -0.5818461145E-01      0.2609653714E+00
          0                 3           2             4    7     1      -0.2832961936E-03       4    7    1        -0.1529446247E-01      0.2879341043E-01
          0                 4           1             4    7     1      -0.7781011133E-04       4    7    1        -0.4188788165E-02      0.6318103361E-02

    ------------------------------------------------
       NWT REQUIRED            4 OUTER ITERATIONS 
       AND A TOTAL OF          7 INNER ITERATIONS.
    ------------------------------------------------

 NO OUTPUT CONTROL FOR STRESS PERIOD   26   TIME STEP    6
 
 SOLVING FOR HEAD 
                                                   Max.-Head-Change                         Max.-Flux-Residual
  Residual-Control   Outer-Iter.   Inner-Iter.     Column Row Layer    Maximum-Head-Change  Column Row Layer    Maximum-Flux-Residual          L2-NORM 
          0                 1           2             3    7     1       0.1960176531E-01       6    8    1         0.5744738174E+00      0.2462458384E+01
          0                 2           2             3    7     1      -0.1918894699E-02       6    8    1        -0.5744751031E-01      0.2571980703E+00
          0                 3           2             4    7     1      -0.2592490424E-03       4    7    1        -0.1402555039E-01      0.2754036444E-01
          0                 4           1             4    7     1      -0.7101741341E-04       4    7    1        -0.3830441468E-02      0.5910633429E-02

    ------------------------------------------------
       NWT REQUIRED            4 OUTER ITERATIONS 
       AND A TOTAL OF          7 INNER ITERATIONS.
    ------------------------------------------------

 NO OUTPUT CONTROL FOR STRESS PERIOD   26   TIME STEP    7
 
 SOLVING FOR HEAD 
                                                   Max.-Head-Change                         Max.-Flux-Residual
  Residual-Control   Outer-Iter.   Inner-Iter.     Column Row Layer    Maximum-Head-Change  Column Row Layer    Maximum-Flux-Residual          L2-NORM 
          0                 1           2             3    7     1       0.1929457760E-01       6    8    1         0.5673486573E+00      0.2437723547E+01
          0                 2           2             3    7     1      -0.1887952540E-02       6    8    1        -0.5673499073E-01      0.2537977961E+00
          0                 3           2             4    7     1      -0.2358860096E-03       4    7    1        -0.1279208729E-01      0.2648224447E-01
          0                 4           1             4    7     1      -0.6442242702E-04       4    7    1        -0.3482354449E-02      0.5566327907E-02

    ------------------------------------------------
       NWT REQUIRED            4 OUTER ITERATIONS 
       AND A TOTAL OF          7 INNER ITERATIONS.
    ------------------------------------------------

 NO OUTPUT CONTROL FOR STRESS PERIOD   26   TIME STEP    8
 
 SOLVING FOR HEAD 
                                                   Max.-Head-Change                         Max.-Flux-Residual
  Residual-Control   Outer-Iter.   Inner-Iter.     Column Row Layer    Maximum-Head-Change  Column Row Layer    Maximum-Flux-Residual          L2-NORM 
          0                 1           2             3    7     1       0.1899634188E-01       6    8    1         0.5604757509E+00      0.2414124796E+01
          0                 2           2             3    7     1      -0.1857912330E-02       6    8    1        -0.5604769664E-01      0.2507396822E+00
          0                 3           2             5    8     1       0.2171759823E-03       5    8    1         0.1181726251E-01      0.2561661573E-01
          0                 4           1             5    8     1       0.5803081792E-04       5    8    1         0.3193034610E-02      0.5287561064E-02

    ------------------------------------------------
       NWT REQUIRED            4 OUTER ITERATIONS 
       AND A TOTAL OF          7 INNER ITERATIONS.
    ------------------------------------------------

 NO OUTPUT CONTROL FOR STRESS PERIOD   26   TIME STEP    9
 
 SOLVING FOR HEAD 
                                                   Max.-Head-Change                         Max.-Flux-Residual
  Residual-Control   Outer-Iter.   Inner-Iter.     Column Row Layer    Maximum-Head-Change  Column Row Layer    Maximum-Flux-Residual          L2-NORM 
          0                 1           2             3    7     1       0.1870699906E-01       6    8    1         0.5538389409E+00      0.2391587608E+01
          0                 2           2             3    7     1      -0.1828767999E-02       6    8    1        -0.5538401237E-01      0.2479970271E+00
          0                 3           2             5    8     1       0.2221495363E-03       5    8    1         0.1207257651E-01      0.2493686964E-01
          0                 4           1             5    8     1       0.5949374780E-04       5    8    1         0.3267926214E-02      0.5075016109E-02

    ------------------------------------------------
       NWT REQUIRED            4 OUTER ITERATIONS 
       AND A TOTAL OF          7 INNER ITERATIONS.
    ------------------------------------------------

 NO OUTPUT CONTROL FOR STRESS PERIOD   26   TIME STEP   10
 
 SOLVING FOR HEAD 
                                                   Max.-Head-Change                         Max.-Flux-Residual
  Residual-Control   Outer-Iter.   Inner-Iter.     Column Row Layer    Maximum-Head-Change  Column Row Layer    Maximum-Flux-Residual          L2-NORM 
          0                 1           2             3    7     1       0.1842600980E-01       6    8    1         0.5474294255E+00      0.2370061444E+01
          0                 2           2             3    7     1      -0.1800466246E-02       6    8    1        -0.5474305769E-01      0.2455480869E+00
          0                 3           2             5    8     1       0.2269868146E-03       5    8    1         0.1232107585E-01      0.2443554827E-01
          0                 4           1             5    8     1       0.6091529056E-04       5    8    1         0.3340747152E-02      0.4928396164E-02

    ------------------------------------------------
       NWT REQUIRED            4 OUTER ITERATIONS 
       AND A TOTAL OF          7 INNER ITERATIONS.
    ------------------------------------------------

 NO OUTPUT CONTROL FOR STRESS PERIOD   26   TIME STEP   11
 
 SOLVING FOR HEAD 
                                                   Max.-Head-Change                         Max.-Flux-Residual
  Residual-Control   Outer-Iter.   Inner-Iter.     Column Row Layer    Maximum-Head-Change  Column Row Layer    Maximum-Flux-Residual          L2-NORM 
          0                 1           2             3    7     1       0.1815333071E-01       6    8    1         0.5412392804E+00      0.2349478291E+01
          0                 2           2             3    7     1      -0.1773002848E-02       6    8    1        -0.5412404018E-01      0.2433694903E+00
          0                 3           2             5    8     1       0.2316899711E-03       5    8    1         0.1256283314E-01      0.2410210084E-01
          0                 4           1             5    8     1       0.6229634734E-04       5    8    1         0.3411533781E-02      0.4845363218E-02

    ------------------------------------------------
       NWT REQUIRED            4 OUTER ITERATIONS 
       AND A TOTAL OF          7 INNER ITERATIONS.
    ------------------------------------------------

 NO OUTPUT CONTROL FOR STRESS PERIOD   26   TIME STEP   12
 
 SOLVING FOR HEAD 
                                                   Max.-Head-Change                         Max.-Flux-Residual
  Residual-Control   Outer-Iter.   Inner-Iter.     Column Row Layer    Maximum-Head-Change  Column Row Layer    Maximum-Flux-Residual          L2-NORM 
          0                 1           2             3    7     1       0.1788891654E-01       6    8    1         0.5352603952E+00      0.2329783558E+01
          0                 2           2             3    7     1      -0.1746372873E-02       6    8    1        -0.5352614879E-01      0.2414391645E+00
          0                 3           2             5    8     1       0.2362400459E-03       5    8    1         0.1279678643E-01      0.2392319502E-01
          0                 4           1             5    8     1       0.6363199333E-04       5    8    1         0.3480009814E-02      0.4821383080E-02

    ------------------------------------------------
       NWT REQUIRED            4 OUTER ITERATIONS 
       AND A TOTAL OF          7 INNER ITERATIONS.
    ------------------------------------------------

 NO OUTPUT CONTROL FOR STRESS PERIOD   26   TIME STEP   13
 
 SOLVING FOR HEAD 
                                                   Max.-Head-Change                         Max.-Flux-Residual
  Residual-Control   Outer-Iter.   Inner-Iter.     Column Row Layer    Maximum-Head-Change  Column Row Layer    Maximum-Flux-Residual          L2-NORM 
          0                 1           2             3    7     1       0.1763199957E-01       6    8    1         0.5294920622E+00      0.2310931267E+01
          0                 2           2             3    7     1      -0.1720587489E-02       6    8    1        -0.5294931275E-01      0.2398367237E+00
          0                 3           2             5    8     1       0.2406598470E-03       5    8    1         0.1302418803E-01      0.2388979612E-01
          0                 4           1             5    8     1       0.6492834713E-04       5    8    1         0.3546510278E-02      0.4850759150E-02

    ------------------------------------------------
       NWT REQUIRED            4 OUTER ITERATIONS 
       AND A TOTAL OF          7 INNER ITERATIONS.
    ------------------------------------------------

 NO OUTPUT CONTROL FOR STRESS PERIOD   26   TIME STEP   14
 
 SOLVING FOR HEAD 
                                                   Max.-Head-Change                         Max.-Flux-Residual
  Residual-Control   Outer-Iter.   Inner-Iter.     Column Row Layer    Maximum-Head-Change  Column Row Layer    Maximum-Flux-Residual          L2-NORM 
          0                 1           2             3    7     1       0.1738222197E-01       6    8    1         0.5239191941E+00      0.2292782388E+01
          0                 2           2             3    7     1      -0.1695353082E-02       6    8    1        -0.5239202332E-01      0.2382382976E+00
          0                 3           2             5    8     1       0.2449430142E-03       5    8    1         0.1324461681E-01      0.2397181537E-01
          0                 4           1             5    8     1       0.6618420383E-04       5    8    1         0.3610949048E-02      0.4926363279E-02

    ------------------------------------------------
       NWT REQUIRED            4 OUTER ITERATIONS 
       AND A TOTAL OF          7 INNER ITERATIONS.
    ------------------------------------------------

 NO OUTPUT CONTROL FOR STRESS PERIOD   26   TIME STEP   15
 
 SOLVING FOR HEAD 
                                                   Max.-Head-Change                         Max.-Flux-Residual
  Residual-Control   Outer-Iter.   Inner-Iter.     Column Row Layer    Maximum-Head-Change  Column Row Layer    Maximum-Flux-Residual          L2-NORM 
          0                 1           2             3    7     1       0.1713984081E-01       6    8    1         0.5185416000E+00      0.2275323454E+01
          0                 2           2             3    7     1      -0.1670951657E-02       6    8    1        -0.5185426143E-01      0.2369240434E+00
          0                 3           2             5    8     1       0.2490900705E-03       5    8    1         0.1345813624E-01      0.2416693971E-01
          0                 4           1             5    8     1       0.6739947901E-04       5    8    1         0.3673330376E-02      0.5040532890E-02

    ------------------------------------------------
       NWT REQUIRED            4 OUTER ITERATIONS 
       AND A TOTAL OF          7 INNER ITERATIONS.
    ------------------------------------------------

 NO OUTPUT CONTROL FOR STRESS PERIOD   26   TIME STEP   16
 
 SOLVING FOR HEAD 
                                                   Max.-Head-Change                         Max.-Flux-Residual
  Residual-Control   Outer-Iter.   Inner-Iter.     Column Row Layer    Maximum-Head-Change  Column Row Layer    Maximum-Flux-Residual          L2-NORM 
          0                 1           2             3    7     1       0.1690427321E-01       6    8    1         0.5133446251E+00      0.2258571712E+01
          0                 2           2             3    7     1      -0.1647240927E-02       5    8    1         0.5244380219E-01      0.2357851361E+00
          0                 3           2             5    8     1       0.2531063490E-03       5    8    1         0.1366497447E-01      0.2445599144E-01
          0                 4           1             5    8     1       0.6857604800E-04       5    8    1         0.3733739180E-02      0.5186256678E-02

    ------------------------------------------------
       NWT REQUIRED            4 OUTER ITERATIONS 
       AND A TOTAL OF          7 INNER ITERATIONS.
    ------------------------------------------------

 NO OUTPUT CONTROL FOR STRESS PERIOD   26   TIME STEP   17
 
 SOLVING FOR HEAD 
                                                   Max.-Head-Change                         Max.-Flux-Residual
  Residual-Control   Outer-Iter.   Inner-Iter.     Column Row Layer    Maximum-Head-Change  Column Row Layer    Maximum-Flux-Residual          L2-NORM 
          0                 1           2             3    7     1       0.1667552223E-01       6    8    1         0.5083284846E+00      0.2242495043E+01
          0                 2           2             3    7     1      -0.1624219516E-02       5    8    1         0.5310526891E-01      0.2348058847E+00
          0                 3           2             5    8     1       0.2569933015E-03       5    8    1         0.1386522096E-01      0.2482362526E-01
          0                 4           1             5    8     1       0.6971425371E-04       5    8    1         0.3792195885E-02      0.5356626075E-02

    ------------------------------------------------
       NWT REQUIRED            4 OUTER ITERATIONS 
       AND A TOTAL OF          7 INNER ITERATIONS.
    ------------------------------------------------

 NO OUTPUT CONTROL FOR STRESS PERIOD   26   TIME STEP   18
 
 SOLVING FOR HEAD 
                                                   Max.-Head-Change                         Max.-Flux-Residual
  Residual-Control   Outer-Iter.   Inner-Iter.     Column Row Layer    Maximum-Head-Change  Column Row Layer    Maximum-Flux-Residual          L2-NORM 
          0                 1           2             3    7     1       0.1645310758E-01       6    8    1         0.5034788822E+00      0.2227050259E+01
          0                 2           2             3    7     1      -0.1615574834E-02       5    8    1         0.5374584694E-01      0.2340356996E+00
          0                 3           2             5    8     1       0.2607550354E-03       5    8    1         0.1405906446E-01      0.2525956331E-01
          0                 4           1             5    8     1       0.7081544699E-04       5    8    1         0.3848764570E-02      0.5545944058E-02

    ------------------------------------------------
       NWT REQUIRED            4 OUTER ITERATIONS 
       AND A TOTAL OF          7 INNER ITERATIONS.
    ------------------------------------------------

 NO OUTPUT CONTROL FOR STRESS PERIOD   26   TIME STEP   19
 
 SOLVING FOR HEAD 
                                                   Max.-Head-Change                         Max.-Flux-Residual
  Residual-Control   Outer-Iter.   Inner-Iter.     Column Row Layer    Maximum-Head-Change  Column Row Layer    Maximum-Flux-Residual          L2-NORM 
          0                 1           2             3    7     1       0.1619844606E-01       6    8    1         0.4987966540E+00      0.2212152963E+01
          0                 2           2             3    7     1      -0.1576352144E-02       5    8    1         0.5436805370E-01      0.2332635377E+00
          0                 3           2             5    8     1       0.2644037652E-03       5    8    1         0.1424717635E-01      0.2574210141E-01
          0                 4           1             5    8     1       0.7188290817E-04       5    8    1         0.3903624571E-02      0.5749026215E-02

    ------------------------------------------------
       NWT REQUIRED            4 OUTER ITERATIONS 
       AND A TOTAL OF          7 INNER ITERATIONS.
    ------------------------------------------------

 NO OUTPUT CONTROL FOR STRESS PERIOD   26   TIME STEP   20
 
 SOLVING FOR HEAD 
                                                   Max.-Head-Change                         Max.-Flux-Residual
  Residual-Control   Outer-Iter.   Inner-Iter.     Column Row Layer    Maximum-Head-Change  Column Row Layer    Maximum-Flux-Residual          L2-NORM 
          0                 1           2             3    7     1       0.1596530168E-01       6    8    1         0.4942753735E+00      0.2197783641E+01
          0                 2           2             3    7     1      -0.1552981970E-02       5    8    1         0.5496808209E-01      0.2326701495E+00
          0                 3           2             5    8     1       0.2679229759E-03       5    8    1         0.1442860759E-01      0.2626907724E-01
          0                 4           1             5    8     1       0.7291248077E-04       5    8    1         0.3956537646E-02      0.5961868911E-02

    ------------------------------------------------
       NWT REQUIRED            4 OUTER ITERATIONS 
       AND A TOTAL OF          7 INNER ITERATIONS.
    ------------------------------------------------

 NO OUTPUT CONTROL FOR STRESS PERIOD   26   TIME STEP   21
 
 SOLVING FOR HEAD 
                                                   Max.-Head-Change                         Max.-Flux-Residual
  Residual-Control   Outer-Iter.   Inner-Iter.     Column Row Layer    Maximum-Head-Change  Column Row Layer    Maximum-Flux-Residual          L2-NORM 
          0                 1           2             3    7     1       0.1573879651E-01       6    8    1         0.4899010840E+00      0.2183957590E+01
          0                 2           2             3    7     1      -0.1530282137E-02       5    8    1         0.5554857673E-01      0.2321836859E+00
          0                 3           2             5    8     1       0.2713255162E-03       5    8    1         0.1460406939E-01      0.2682801451E-01
          0                 4           1             5    8     1       0.7390766286E-04       5    8    1         0.4007692076E-02      0.6180686577E-02

    ------------------------------------------------
       NWT REQUIRED            4 OUTER ITERATIONS 
       AND A TOTAL OF          7 INNER ITERATIONS.
    ------------------------------------------------

 NO OUTPUT CONTROL FOR STRESS PERIOD   26   TIME STEP   22
 
 SOLVING FOR HEAD 
                                                   Max.-Head-Change                         Max.-Flux-Residual
  Residual-Control   Outer-Iter.   Inner-Iter.     Column Row Layer    Maximum-Head-Change  Column Row Layer    Maximum-Flux-Residual          L2-NORM 
          0                 1           2             3    7     1       0.1551941116E-01       7    8    1         0.4861130441E+00      0.2170650836E+01
          0                 2           2             3    7     1      -0.1508298650E-02       5    8    1         0.5611017159E-01      0.2317939375E+00
          0                 3           2             5    8     1       0.2746159739E-03       5    8    1         0.1477377681E-01      0.2741074893E-01
          0                 4           1             5    8     1       0.7486984805E-04       5    8    1         0.4057158858E-02      0.6403113427E-02

    ------------------------------------------------
       NWT REQUIRED            4 OUTER ITERATIONS 
       AND A TOTAL OF          7 INNER ITERATIONS.
    ------------------------------------------------

 NO OUTPUT CONTROL FOR STRESS PERIOD   26   TIME STEP   23
 
 SOLVING FOR HEAD 
                                                   Max.-Head-Change                         Max.-Flux-Residual
  Residual-Control   Outer-Iter.   Inner-Iter.     Column Row Layer    Maximum-Head-Change  Column Row Layer    Maximum-Flux-Residual          L2-NORM 
          0                 1           2             3    7     1       0.1530639813E-01       7    8    1         0.4831977017E+00      0.2157829923E+01
          0                 2           2             3    7     1      -0.1486958022E-02       5    8    1         0.5665322719E-01      0.2314898960E+00
          0                 3           2             5    8     1       0.2777954768E-03       5    8    1         0.1493781023E-01      0.2800995834E-01
          0                 4           1             5    8     1       0.7579926044E-04       5    8    1         0.4104952806E-02      0.6626780075E-02

    ------------------------------------------------
       NWT REQUIRED            4 OUTER ITERATIONS 
       AND A TOTAL OF          7 INNER ITERATIONS.
    ------------------------------------------------

 NO OUTPUT CONTROL FOR STRESS PERIOD   26   TIME STEP   24
 
 SOLVING FOR HEAD 
                                                   Max.-Head-Change                         Max.-Flux-Residual
  Residual-Control   Outer-Iter.   Inner-Iter.     Column Row Layer    Maximum-Head-Change  Column Row Layer    Maximum-Flux-Residual          L2-NORM 
          0                 1           2             3    7     1       0.1509976231E-01       7    8    1         0.4803075927E+00      0.2145470480E+01
          0                 2           2             3    7     1      -0.1466259943E-02       5    8    1         0.5717824436E-01      0.2312630438E+00
          0                 3           2             5    8     1       0.2808687428E-03       5    8    1         0.1509638098E-01      0.2862017801E-01
          0                 4           1             5    8     1       0.7669749673E-04       5    8    1         0.4151148116E-02      0.6850151401E-02

    ------------------------------------------------
       NWT REQUIRED            4 OUTER ITERATIONS 
       AND A TOTAL OF          7 INNER ITERATIONS.
    ------------------------------------------------

 NO OUTPUT CONTROL FOR STRESS PERIOD   26   TIME STEP   25
 
 SOLVING FOR HEAD 
                                                   Max.-Head-Change                         Max.-Flux-Residual
  Residual-Control   Outer-Iter.   Inner-Iter.     Column Row Layer    Maximum-Head-Change  Column Row Layer    Maximum-Flux-Residual          L2-NORM 
          0                 1           2             3    7     1       0.1489926528E-01       7    8    1         0.4774380407E+00      0.2133544689E+01
          0                 2           2             3    7     1      -0.1446180503E-02       5    8    1         0.5768362118E-01      0.2311028833E+00
          0                 3           2             5    8     1       0.2838275490E-03       5    8    1         0.1524904504E-01      0.2923530509E-01
          0                 4           1             5    8     1       0.7756230468E-04       5    8    1         0.4195623211E-02      0.7071525354E-02

    ------------------------------------------------
       NWT REQUIRED            4 OUTER ITERATIONS 
       AND A TOTAL OF          7 INNER ITERATIONS.
    ------------------------------------------------

 NO OUTPUT CONTROL FOR STRESS PERIOD   26   TIME STEP   26
 
 SOLVING FOR HEAD 
                                                   Max.-Head-Change                         Max.-Flux-Residual
  Residual-Control   Outer-Iter.   Inner-Iter.     Column Row Layer    Maximum-Head-Change  Column Row Layer    Maximum-Flux-Residual          L2-NORM 
          0                 1           2             3    7     1       0.1470468043E-01       7    8    1         0.4745901029E+00      0.2122036889E+01
          0                 2           2             3    7     1      -0.1426696895E-02       5    8    1         0.5817420288E-01      0.2310044822E+00
          0                 3           2             5    8     1       0.2866968330E-03       5    8    1         0.1539714514E-01      0.2985268009E-01
          0                 4           1             5    8     1       0.7840055397E-04       5    8    1         0.4238747098E-02      0.7290345561E-02

    ------------------------------------------------
       NWT REQUIRED            4 OUTER ITERATIONS 
       AND A TOTAL OF          7 INNER ITERATIONS.
    ------------------------------------------------

 NO OUTPUT CONTROL FOR STRESS PERIOD   26   TIME STEP   27
 
 SOLVING FOR HEAD 
                                                   Max.-Head-Change                         Max.-Flux-Residual
  Residual-Control   Outer-Iter.   Inner-Iter.     Column Row Layer    Maximum-Head-Change  Column Row Layer    Maximum-Flux-Residual          L2-NORM 
          0                 1           2             3    7     1       0.1451578671E-01       7    8    1         0.4717648018E+00      0.2110923649E+01
          0                 2           2             3    7     1      -0.1407787395E-02       5    8    1         0.5864604147E-01      0.2309586874E+00
          0                 3           2             5    8     1       0.2894575640E-03       5    8    1         0.1553963426E-01      0.3046765626E-01
          0                 4           1             5    8     1       0.7920717222E-04       5    8    1         0.4280240570E-02      0.7505417591E-02

    ------------------------------------------------
       NWT REQUIRED            4 OUTER ITERATIONS 
       AND A TOTAL OF          7 INNER ITERATIONS.
    ------------------------------------------------

 NO OUTPUT CONTROL FOR STRESS PERIOD   26   TIME STEP   28
 
 SOLVING FOR HEAD 
                                                   Max.-Head-Change                         Max.-Flux-Residual
  Residual-Control   Outer-Iter.   Inner-Iter.     Column Row Layer    Maximum-Head-Change  Column Row Layer    Maximum-Flux-Residual          L2-NORM 
          0                 1           2             3    7     1       0.1433237220E-01       7    8    1         0.4689684550E+00      0.2100178742E+01
          0                 2           2             3    7     1      -0.1389430683E-02       5    8    1         0.5910177289E-01      0.2309583003E+00
          0                 3           2             5    8     1       0.2921230567E-03       5    8    1         0.1567723640E-01      0.3107732334E-01
          0                 4           1             5    8     1       0.7998578540E-04       5    8    1         0.4320299951E-02      0.7716114573E-02

    ------------------------------------------------
       NWT REQUIRED            4 OUTER ITERATIONS 
       AND A TOTAL OF          7 INNER ITERATIONS.
    ------------------------------------------------

 NO OUTPUT CONTROL FOR STRESS PERIOD   26   TIME STEP   29
 
 SOLVING FOR HEAD 
                                                   Max.-Head-Change                         Max.-Flux-Residual
  Residual-Control   Outer-Iter.   Inner-Iter.     Column Row Layer    Maximum-Head-Change  Column Row Layer    Maximum-Flux-Residual          L2-NORM 
          0                 1           2             3    7     1       0.1415447355E-01       7    8    1         0.4661960678E+00      0.2089791122E+01
          0                 2           2             3    7     1      -0.1371629101E-02       5    8    1         0.5953985439E-01      0.2309993828E+00
          0                 3           2             5    8     1       0.2946872707E-03       5    8    1         0.1580958365E-01      0.3168027907E-01
          0                 4           1             5    8     1       0.8073501942E-04       5    8    1         0.4358840124E-02      0.7922272646E-02

    ------------------------------------------------
       NWT REQUIRED            4 OUTER ITERATIONS 
       AND A TOTAL OF          7 INNER ITERATIONS.
    ------------------------------------------------

 NO OUTPUT CONTROL FOR STRESS PERIOD   26   TIME STEP   30



 STREAM LISTING     PERIOD     26   STEP       30

 LAYER ROW COL. STREAM  RCH.  FLOW INTO     FLOW TO   FLOW OUT OF   OVRLND.     DIRECT     STREAM       STREAM     STREAM     STREAM   STREAMBED  STREAMBED
                SEG.NO.  NO.  STRM. RCH.    AQUIFER    STRM. RCH.    RUNOFF     PRECIP       ET          HEAD       DEPTH      WIDTH   CONDCTNC.   GRADIENT

   1    1    1     1     1    8.2501E+00  1.3178E-01   8.1183E+00  0.000E+00  0.000E+00  0.000E+00  1.09389E+03  8.424E-01  7.622E+00  3.430E-02  1.281E+00
   1    2    2     1     2    8.1183E+00  2.0241E-01   7.9159E+00  0.000E+00  0.000E+00  0.000E+00  1.08890E+03  8.367E-01  7.537E+00  5.276E-02  1.279E+00
   1    3    3     1     3    7.9159E+00  1.7099E-01   7.7449E+00  0.000E+00  0.000E+00  0.000E+00  1.08325E+03  8.302E-01  7.440E+00  4.464E-02  1.277E+00
   1    3    4     1     4    7.7449E+00  1.5612E-01   7.5888E+00  0.000E+00  0.000E+00  0.000E+00  1.07823E+03  8.244E-01  7.355E+00  4.082E-02  1.275E+00
   1    4    5     2     1    5.5888E+00  2.7178E-01   5.3170E+00  0.000E+00  0.000E+00  0.000E+00  1.07242E+03  4.843E-01  1.200E+01  7.800E-02  1.161E+00
   1    5    6     2     2    5.3170E+00  2.0828E-01   5.1088E+00  0.000E+00  0.000E+00  0.000E+00  1.06698E+03  4.714E-01  1.200E+01  6.000E-02  1.157E+00
   1    6    6     2     3    5.1088E+00  2.0760E-01   4.9012E+00  0.000E+00  0.000E+00  0.000E+00  1.06225E+03  4.600E-01  1.200E+01  6.000E-02  1.153E+00
   1    7    6     2     4    4.9012E+00  2.0691E-01   4.6943E+00  0.000E+00  0.000E+00  0.000E+00  1.05752E+03  4.485E-01  1.200E+01  6.000E-02  1.150E+00
   1    8    6     2     5    4.6943E+00  2.0621E-01   4.4880E+00  0.000E+00  0.000E+00  0.000E+00  1.05280E+03  4.368E-01  1.200E+01  6.000E-02  1.146E+00
   1    3    5     3     1    2.0000E+00  2.8252E-01   1.7175E+00  0.000E+00  0.000E+00  0.000E+00  1.07555E+03  1.909E+00  9.636E+00  7.227E-02  1.955E+00
   1    3    6     3     2    1.7175E+00  2.4905E-01   1.4684E+00  0.000E+00  0.000E+00  0.000E+00  1.07264E+03  1.727E+00  8.909E+00  6.682E-02  1.864E+00
   1    3    7     3     3    1.4684E+00  1.9718E-01   1.2712E+00  0.000E+00  0.000E+00  0.000E+00  1.06987E+03  1.555E+00  8.218E+00  5.547E-02  1.777E+00
   1    4    8     3     4    1.2712E+00  2.2567E-01   1.0456E+00  0.000E+00  0.000E+00  0.000E+00  1.06682E+03  1.364E+00  7.455E+00  6.709E-02  1.682E+00
   1    5    8     3     5    1.0456E+00  1.5790E-01   8.8768E-01  0.000E+00  0.000E+00  0.000E+00  1.06362E+03  1.164E+00  6.655E+00  4.991E-02  1.582E+00
   1    6    8     3     6    8.8768E-01  5.5980E-02   8.3170E-01  0.000E+00  0.000E+00  0.000E+00  1.06158E+03  1.036E+00  6.145E+00  1.844E-02  1.518E+00
   1    5   10     4     1    1.0000E+01  9.0919E-02   9.9091E+00  0.000E+00  0.000E+00  0.000E+00  1.07836E+03  6.368E-01  1.000E+01  2.500E-02  1.212E+00
   1    5    9     4     2    9.9091E+00  1.8158E-01   9.7275E+00  0.000E+00  0.000E+00  0.000E+00  1.07154E+03  6.315E-01  1.000E+01  5.000E-02  1.211E+00
   1    6    8     4     3    9.7275E+00  1.2689E-01   9.6006E+00  0.000E+00  0.000E+00  0.000E+00  1.06381E+03  6.256E-01  1.000E+01  3.500E-02  1.209E+00
   1    6    8     5     1    1.0432E+01  2.2686E-01   1.0205E+01  0.000E+00  0.000E+00  0.000E+00  1.05868E+03  6.790E-01  1.542E+01  6.166E-02  1.226E+00
   1    7    7     5     2    1.0205E+01  2.7894E-01   9.9265E+00  0.000E+00  0.000E+00  0.000E+00  1.05417E+03  6.732E-01  1.519E+01  7.594E-02  1.224E+00
   1    8    7     5     3    9.9265E+00  1.9221E-01   9.7343E+00  0.000E+00  0.000E+00  0.000E+00  1.04992E+03  6.676E-01  1.497E+01  5.241E-02  1.223E+00
   1    8    6     5     4    9.7343E+00  1.3577E-01   9.5985E+00  0.000E+00  0.000E+00  0.000E+00  1.04691E+03  6.637E-01  1.482E+01  3.706E-02  1.221E+00
   1    9    6     6     1    1.4087E+01  2.3167E-01   1.3855E+01  0.000E+00  0.000E+00  0.000E+00  1.04359E+03  8.612E-01  1.200E+01  6.000E-02  1.287E+00
   1   10    7     6     2    1.3855E+01  2.3116E-01   1.3624E+01  0.000E+00  0.000E+00  0.000E+00  1.03903E+03  8.526E-01  1.200E+01  6.000E-02  1.284E+00
   1   11    7     6     3    1.3624E+01  2.3064E-01   1.3393E+01  0.000E+00  0.000E+00  0.000E+00  1.03448E+03  8.440E-01  1.200E+01  6.000E-02  1.281E+00
   1   12    7     6     4    1.3393E+01  2.3012E-01   1.3163E+01  0.000E+00  0.000E+00  0.000E+00  1.02993E+03  8.353E-01  1.200E+01  6.000E-02  1.278E+00
   1   13    7     6     5    1.3163E+01  9.4653E-03   1.3154E+01  0.000E+00  0.000E+00  0.000E+00  1.02674E+03  8.308E-01  1.200E+01  2.400E-02  1.315E-01
   1   14    9     7     1    1.5000E+02  1.3979E+00   1.4860E+02  0.000E+00  0.000E+00  0.000E+00  1.03987E+03  2.288E+00  5.529E+01  5.593E-01  8.332E-01
   1   13    8     7     2    1.4860E+02  2.0562E+00   1.4655E+02  0.000E+00  0.000E+00  0.000E+00  1.03478E+03  2.278E+00  5.525E+01  6.147E-01  1.115E+00
   1   13    7     7     3    1.4655E+02  1.8658E+00   1.4468E+02  0.000E+00  0.000E+00  0.000E+00  1.02969E+03  2.268E+00  5.521E+01  5.583E-01  1.114E+00
   1   13    6     8     1    1.5783E+02  1.2415E+00   1.5659E+02  0.000E+00  0.000E+00  0.000E+00  1.02474E+03  2.867E+00  4.157E+01  4.236E-01  9.769E-01
   1   13    5     8     2    1.5659E+02  4.8261E-01   1.5611E+02  0.000E+00  0.000E+00  0.000E+00  1.01849E+03  2.861E+00  4.148E+01  4.227E-01  3.805E-01
   1   13    4     8     3    1.5611E+02 -1.3789E+00   1.5749E+02  0.000E+00  0.000E+00  0.000E+00  1.01224E+03  2.864E+00  4.153E+01  4.232E+00 -1.086E-01
   1   13    3     8     4    1.5749E+02 -3.1261E+00   1.6061E+02  0.000E+00  0.000E+00  0.000E+00  1.00600E+03  2.879E+00  4.175E+01  4.255E+00 -2.449E-01
   1   13    2     8     5    1.6061E+02 -2.4538E+00   1.6307E+02  0.000E+00  0.000E+00  0.000E+00  9.99773E+02  2.898E+00  4.202E+01  4.282E+00 -1.910E-01
   1   13    1     8     6    1.6307E+02 -1.9500E+00   1.6502E+02  0.000E+00  0.000E+00  0.000E+00  9.94788E+02  2.913E+00  4.224E+01  2.583E+00 -2.517E-01
   1    8    6     9     1    0.0000E+00  0.0000E+00   0.0000E+00  0.000E+00  0.000E+00  0.000E+00  1.07875E+03  0.000E+00  4.000E+00  0.000E+00  1.000E+00
   1    8    5     9     2    0.0000E+00  0.0000E+00   0.0000E+00  0.000E+00  0.000E+00  0.000E+00  1.07825E+03  0.000E+00  4.000E+00  0.000E+00  1.000E+00





UNSATURATED ZONE PACKAGE VOLUMETRIC BUDGET FOR  TIME STEP    30 STRESS PERIOD   26
  ------------------------------------------------------------------------------



     CUMULATIVE VOLUMES      L**3       RATES FOR THIS TIME STEP      L**3/T
     ------------------                 ------------------------

           IN:                                      IN:
           ---                                      ---
        INFILTRATION =  6665293225.2854          INFILTRATION =           0.8475

          OUT:                                     OUT:
          ----                                     ----
              UZF ET =   864569629.0399                UZF ET =           0.7500
        UZF RECHARGE =  5357817202.5747          UZF RECHARGE =           6.7208

            IN - OUT =   442906393.6708              IN - OUT =          -6.6233

          STORAGE:                                 STORAGE:
          --------                                 --------
      STORAGE CHANGE =   443618325.5599        STORAGE CHANGE =          -6.6233

 PERCENT DISCREPANCY IS DIFFERENCE BETWEEN IN-OUT MINUS CHANGE IN STORAGE
 DIVIDED BY THE AVERAGE OF IN AND OUT TIMES 100

 PERCENT DISCREPANCY =          -0.00     PERCENT DISCREPANCY =          -0.00






1
  VOLUMETRIC BUDGET FOR AGRICULTURAL FIELDS AT  END OF TIME STEP   30, STRESS PERIOD  26
  ------------------------------------------------------------------------------

     CUMULATIVE VOLUMES      L**3       RATES FOR THIS TIME STEP      L**3/T
     ------------------                 ------------------------

           IN:                                      IN:
           ---                                      ---
               AG WELLS  =  6318206976.0000                 AG WELLS  =           0.0000
      DIVERSION SEGMENTS =   291316640.0000        DIVERSION SEGMENTS =           0.0000
           GW IRRIGATION =           0.0000             GW IRRIGATION =           0.0000
           SW IRRIGATION =           0.0000             SW IRRIGATION =           0.0000
        SYSTEM LOSSES GW =           0.0000          SYSTEM LOSSES GW =           0.0000
        SYSTEM LOSSES SW =           0.0000          SYSTEM LOSSES SW =           0.0000

                TOTAL IN =  6609523712.0000                  TOTAL IN =           0.0000

          OUT:                                     OUT:
          ----                                     ----
               AG WELLS  =           0.0000                 AG WELLS  =           0.0000
      DIVERSION SEGMENTS =           0.0000        DIVERSION SEGMENTS =           0.0000
           GW IRRIGATION =  6318206976.0000             GW IRRIGATION =           0.0000
           SW IRRIGATION =   291322048.0000             SW IRRIGATION =           0.0000
        SYSTEM LOSSES GW =           0.0000          SYSTEM LOSSES GW =           0.0000
        SYSTEM LOSSES SW =           0.0000          SYSTEM LOSSES SW =           0.0000

               TOTAL OUT =  6609528832.0000                 TOTAL OUT =           0.0000

                IN - OUT =       -5120.0000                  IN - OUT =           0.0000

     PERCENT DISCREPANCY =          -0.00         PERCENT DISCREPANCY =           0.00



1
  VOLUMETRIC BUDGET FOR ENTIRE MODEL AT END OF TIME STEP   30, STRESS PERIOD  26
  ------------------------------------------------------------------------------

     CUMULATIVE VOLUMES      L**3       RATES FOR THIS TIME STEP      L**3/T
     ------------------                 ------------------------

           IN:                                      IN:
           ---                                      ---
             STORAGE     =  5808861184.0000               STORAGE     =           2.8263
       CONSTANT HEAD     =           0.0000         CONSTANT HEAD     =           0.0000
     HEAD DEP BOUNDS     =    18993944.0000       HEAD DEP BOUNDS     =           0.2900
      STREAM LEAKAGE     =   792488384.0000        STREAM LEAKAGE     =          12.1406
        UZF RECHARGE     =  5357815296.0000          UZF RECHARGE     =           6.7208
               GW ET     =           0.0000                 GW ET     =           0.0000
     SURFACE LEAKAGE     =           0.0000       SURFACE LEAKAGE     =           0.0000
           AG WELLS      =           0.0000             AG WELLS      =           0.0000

                TOTAL IN = 11978159104.0000                  TOTAL IN =          21.9777

          OUT:                                     OUT:
          ----                                     ----
             STORAGE     =  5005319168.0000               STORAGE     =          12.7770
       CONSTANT HEAD     =           0.0000         CONSTANT HEAD     =           0.0000
     HEAD DEP BOUNDS     =    18949580.0000       HEAD DEP BOUNDS     =           0.2866
      STREAM LEAKAGE     =   635605824.0000        STREAM LEAKAGE     =           8.9088
        UZF RECHARGE     =           0.0000          UZF RECHARGE     =           0.0000
               GW ET     =           0.0000                 GW ET     =           0.0000
     SURFACE LEAKAGE     =           0.0000       SURFACE LEAKAGE     =           0.0000
           AG WELLS      =  6318206976.0000             AG WELLS      =           0.0000

               TOTAL OUT = 11978082304.0000                 TOTAL OUT =          21.9724

                IN - OUT =       76800.0000                  IN - OUT =       5.3062E-03

     PERCENT DISCREPANCY =           0.00         PERCENT DISCREPANCY =           0.02






         TIME SUMMARY AT END OF TIME STEP   30 IN STRESS PERIOD   26
                    SECONDS     MINUTES      HOURS       DAYS        YEARS
                    -----------------------------------------------------------
   TIME STEP LENGTH  87667.      1461.1      24.352      1.0147     2.77799E-03
 STRESS PERIOD TIME 2.63000E+06  43833.      730.56      30.440     8.33397E-02
         TOTAL TIME 6.58368E+07 1.09728E+06  18288.      762.00      2.0862    
1
1
                            STRESS PERIOD NO.   27, LENGTH =   2630000.    
                            -----------------------------------------------

                              NUMBER OF TIME STEPS =    30

                               MULTIPLIER FOR DELT =     1.000

                            INITIAL TIME STEP SIZE =   87666.66    

 REUSING NON-PARAMETER GHB CELLS FROM LAST STRESS PERIOD

      2 GHB CELLS

 REUSING STREAM SEGMENT DATA FROM LAST STRESS PERIOD



            AREAL INFILTRATION RATE
 READING ON UNIT   19 WITH FORMAT: (FREE)              

            1           2           3           4           5           6           7           8           9          10
 ........................................................................................................................
   1   1.0000E-10  2.0000E-10   0.000       0.000       0.000       0.000       0.000       0.000       0.000       0.000    
   2   2.0000E-10  1.0000E-10  2.0000E-10   0.000       0.000      8.0000E-10  8.0000E-10  5.0000E-10   0.000       0.000    
   3    0.000      5.0000E-10  1.0000E-10  1.0000E-10  8.0000E-10  8.0000E-10  5.0000E-10  5.0000E-10   0.000       0.000    
   4   8.0000E-10  5.0000E-10  1.0000E-10  1.0000E-10  1.0000E-10  1.0000E-10  1.0000E-10  1.0000E-10  2.0000E-10   0.000    
   5   8.0000E-10  5.0000E-10  1.0000E-10  1.0000E-10  1.0000E-10  1.0000E-10  1.0000E-10  1.0000E-10  1.0000E-10  1.0000E-10
   6   8.0000E-10  5.0000E-10  5.0000E-10  2.0000E-10  2.0000E-10  1.0000E-10  1.0000E-10  1.0000E-10  1.0000E-10  5.0000E-10
   7   8.0000E-10  5.0000E-10  5.0000E-10  2.0000E-10  2.0000E-10  1.0000E-10  1.0000E-10  2.0000E-10  2.0000E-10   0.000    
   8    0.000      5.0000E-10  5.0000E-10  2.0000E-10  2.0000E-10  1.0000E-10  1.0000E-10  2.0000E-10  5.0000E-10   0.000    
   9    0.000      5.0000E-10  5.0000E-10  2.0000E-10  2.0000E-10  1.0000E-10  1.0000E-10  2.0000E-10  5.0000E-10   0.000    
  10    0.000      5.0000E-10  5.0000E-10  2.0000E-10  2.0000E-10  1.0000E-10  1.0000E-10  2.0000E-10  5.0000E-10  8.0000E-10
  11    0.000      1.0000E-10  1.0000E-10  1.0000E-10  1.0000E-10  1.0000E-10  1.0000E-10  2.0000E-10  5.0000E-10   0.000    
  12   1.0000E-10  1.0000E-10  1.0000E-10  1.0000E-10  1.0000E-10  1.0000E-10  1.0000E-10  1.0000E-10  2.0000E-10   0.000    
  13   1.0000E-10  1.0000E-10  2.0000E-10  2.0000E-10  2.0000E-10  2.0000E-10  2.0000E-10  1.0000E-10  1.0000E-10   0.000    
  14    0.000      2.0000E-10  5.0000E-10  5.0000E-10  5.0000E-10  5.0000E-10  5.0000E-10  2.0000E-10  1.0000E-10   0.000    
  15    0.000       0.000      8.0000E-10  8.0000E-10  8.0000E-10  8.0000E-10   0.000       0.000       0.000       0.000    

                  ET RATE =  5.000000E-10

 USING ET EXTINCTION DEPTH FROM PREVIOUS STRESS PERIOD. CURRENT PERIOD IS:      27

 USING EXTINCTION WATER CONTENT FROM PREVIOUS STRESS PERIOD. CURRENT PERIOD IS:      27

 USING AIR ENTRY PRESSURE FROM PREVIOUS STRESS PERIOD. CURRENT PERIOD IS:      27

 USING ROOT PRESSURE HEAD FROM PREVIOUS STRESS PERIOD. CURRENT PERIOD IS:      27

 USING ROOT ACTIVITY FROM PREVIOUS STRESS PERIOD. CURRENT PERIOD IS:      27

 PROCESSING AG STRESS PERIOD DATA

 READING AG STRESS PERIOD DATA

 READING IRRIGATION SEGMENT

 READING IRRIGATION WELL

 READING SUPPLEMENTAL WELL

 END PROCESSING AG STRESS PERIOD DATA OPTIONS
 
 SOLVING FOR HEAD 
                                                   Max.-Head-Change                         Max.-Flux-Residual
  Residual-Control   Outer-Iter.   Inner-Iter.     Column Row Layer    Maximum-Head-Change  Column Row Layer    Maximum-Flux-Residual          L2-NORM 
          0                 1           2             3    7     1       0.1398164450E-01       7    8    1         0.4634428492E+00      0.2079735475E+01
          0                 2           2             3    7     1      -0.1354339554E-02       5    8    1         0.5996505301E-01      0.2310754210E+00
          0                 3           2             5    8     1       0.2971728935E-03       5    8    1         0.1593793574E-01      0.3227426408E-01
          0                 4           1             5    8     1       0.8146085968E-04       5    8    1         0.4396192914E-02      0.8123424863E-02

    ------------------------------------------------
       NWT REQUIRED            4 OUTER ITERATIONS 
       AND A TOTAL OF          7 INNER ITERATIONS.
    ------------------------------------------------

 NO OUTPUT CONTROL FOR STRESS PERIOD   27   TIME STEP    1
 
 SOLVING FOR HEAD 
                                                   Max.-Head-Change                         Max.-Flux-Residual
  Residual-Control   Outer-Iter.   Inner-Iter.     Column Row Layer    Maximum-Head-Change  Column Row Layer    Maximum-Flux-Residual          L2-NORM 
          0                 1           2             3    8     1       0.1381778620E-01       7    8    1         0.4607264135E+00      0.2073978887E+01
          0                 2           2             3    7     1      -0.1337542096E-02       5    8    1         0.6039165956E-01      0.2315784052E+00
          0                 3           2             5    8     1       0.2996282863E-03       5    8    1         0.1606454211E-01      0.3287482464E-01
          0                 4           1             5    8     1       0.8217667435E-04       5    8    1         0.4433088816E-02      0.8320727424E-02

    ------------------------------------------------
       NWT REQUIRED            4 OUTER ITERATIONS 
       AND A TOTAL OF          7 INNER ITERATIONS.
    ------------------------------------------------

 NO OUTPUT CONTROL FOR STRESS PERIOD   27   TIME STEP    2
 
 SOLVING FOR HEAD 
                                                   Max.-Head-Change                         Max.-Flux-Residual
  Residual-Control   Outer-Iter.   Inner-Iter.     Column Row Layer    Maximum-Head-Change  Column Row Layer    Maximum-Flux-Residual          L2-NORM 
          0                 1           2             3    8     1       0.1367875296E-01       6    8    1         0.4699947944E+00      0.2108633775E+01
          0                 2           2             3    7     1      -0.1321241595E-02       5    8    1         0.6089062104E-01      0.2355942327E+00
          0                 3           2             5    8     1       0.3023310676E-03       5    8    1         0.1620336452E-01      0.3359897816E-01
          0                 4           1             5    8     1       0.8295805452E-04       5    8    1         0.4473668310E-02      0.8520778724E-02

    ------------------------------------------------
       NWT REQUIRED            4 OUTER ITERATIONS 
       AND A TOTAL OF          7 INNER ITERATIONS.
    ------------------------------------------------

 NO OUTPUT CONTROL FOR STRESS PERIOD   27   TIME STEP    3
 
 SOLVING FOR HEAD 
                                                   Max.-Head-Change                         Max.-Flux-Residual
  Residual-Control   Outer-Iter.   Inner-Iter.     Column Row Layer    Maximum-Head-Change  Column Row Layer    Maximum-Flux-Residual          L2-NORM 
          0                 1           2             3    8     1       0.1354265443E-01       6    8    1         0.4664794377E+00      0.2096579061E+01
          0                 2           2             3    8     1      -0.1306811301E-02       5    8    1         0.6134479118E-01      0.2355283779E+00
          0                 3           2             5    8     1       0.3049276550E-03       5    8    1         0.1633848361E-01      0.3417444430E-01
          0                 4           1             5    8     1       0.8370878795E-04       5    8    1         0.4512582262E-02      0.8713851827E-02

    ------------------------------------------------
       NWT REQUIRED            4 OUTER ITERATIONS 
       AND A TOTAL OF          7 INNER ITERATIONS.
    ------------------------------------------------

 NO OUTPUT CONTROL FOR STRESS PERIOD   27   TIME STEP    4
 
 SOLVING FOR HEAD 
                                                   Max.-Head-Change                         Max.-Flux-Residual
  Residual-Control   Outer-Iter.   Inner-Iter.     Column Row Layer    Maximum-Head-Change  Column Row Layer    Maximum-Flux-Residual          L2-NORM 
          0                 1           2             3    8     1       0.1340938806E-01       6    8    1         0.4630733754E+00      0.2085238999E+01
          0                 2           2             3    8     1      -0.1293657452E-02       5    8    1         0.6177681957E-01      0.2355165797E+00
          0                 3           2             5    8     1       0.3074025902E-03       5    8    1         0.1646720233E-01      0.3473545790E-01
          0                 4           1             5    8     1       0.8442490039E-04       5    8    1         0.4549680683E-02      0.8900525771E-02

    ------------------------------------------------
       NWT REQUIRED            4 OUTER ITERATIONS 
       AND A TOTAL OF          7 INNER ITERATIONS.
    ------------------------------------------------

 NO OUTPUT CONTROL FOR STRESS PERIOD   27   TIME STEP    5
 
 SOLVING FOR HEAD 
                                                   Max.-Head-Change                         Max.-Flux-Residual
  Residual-Control   Outer-Iter.   Inner-Iter.     Column Row Layer    Maximum-Head-Change  Column Row Layer    Maximum-Flux-Residual          L2-NORM 
          0                 1           2             3    8     1       0.1327887849E-01       6    8    1         0.4597865066E+00      0.2074527080E+01
          0                 2           2             3    8     1      -0.1280778408E-02       5    8    1         0.6218787378E-01      0.2355514962E+00
          0                 3           2             5    8     1       0.3097623562E-03       5    8    1         0.1658985777E-01      0.3528272919E-01
          0                 4           1             5    8     1       0.8510826166E-04       5    8    1         0.4585060700E-02      0.9081233362E-02

    ------------------------------------------------
       NWT REQUIRED            4 OUTER ITERATIONS 
       AND A TOTAL OF          7 INNER ITERATIONS.
    ------------------------------------------------

 NO OUTPUT CONTROL FOR STRESS PERIOD   27   TIME STEP    6
 
 SOLVING FOR HEAD 
                                                   Max.-Head-Change                         Max.-Flux-Residual
  Residual-Control   Outer-Iter.   Inner-Iter.     Column Row Layer    Maximum-Head-Change  Column Row Layer    Maximum-Flux-Residual          L2-NORM 
          0                 1           2             3    8     1       0.1315105331E-01       6    8    1         0.4566061501E+00      0.2064384470E+01
          0                 2           2             3    8     1      -0.1268167293E-02       5    8    1         0.6258307972E-01      0.2356256536E+00
          0                 3           2             5    8     1       0.3120314669E-03       5    8    1         0.1670780978E-01      0.3581558405E-01
          0                 4           1             5    8     1       0.8576535127E-04       5    8    1         0.4619080997E-02      0.9256289119E-02

    ------------------------------------------------
       NWT REQUIRED            4 OUTER ITERATIONS 
       AND A TOTAL OF          7 INNER ITERATIONS.
    ------------------------------------------------

 NO OUTPUT CONTROL FOR STRESS PERIOD   27   TIME STEP    7
 
 SOLVING FOR HEAD 
                                                   Max.-Head-Change                         Max.-Flux-Residual
  Residual-Control   Outer-Iter.   Inner-Iter.     Column Row Layer    Maximum-Head-Change  Column Row Layer    Maximum-Flux-Residual          L2-NORM 
          0                 1           2             3    8     1       0.1302584172E-01       6    8    1         0.4535280338E+00      0.2054743657E+01
          0                 2           2             3    8     1      -0.1255816642E-02       5    8    1         0.6295884262E-01      0.2357302394E+00
          0                 3           2             5    8     1       0.3141934909E-03       5    8    1         0.1682013304E-01      0.3633302855E-01
          0                 4           1             5    8     1       0.8639193195E-04       5    8    1         0.4651502635E-02      0.9424679826E-02

    ------------------------------------------------
       NWT REQUIRED            4 OUTER ITERATIONS 
       AND A TOTAL OF          7 INNER ITERATIONS.
    ------------------------------------------------

 NO OUTPUT CONTROL FOR STRESS PERIOD   27   TIME STEP    8
 
 SOLVING FOR HEAD 
                                                   Max.-Head-Change                         Max.-Flux-Residual
  Residual-Control   Outer-Iter.   Inner-Iter.     Column Row Layer    Maximum-Head-Change  Column Row Layer    Maximum-Flux-Residual          L2-NORM 
          0                 1           2             3    8     1       0.1290317241E-01       6    8    1         0.4505477590E+00      0.2045552254E+01
          0                 2           2             3    8     1      -0.1243720078E-02       5    8    1         0.6331610994E-01      0.2358582284E+00
          0                 3           2             5    8     1       0.3162532067E-03       5    8    1         0.1692708555E-01      0.3683495231E-01
          0                 4           1             5    8     1       0.8698931268E-04       5    8    1         0.4682396194E-02      0.9587484831E-02

    ------------------------------------------------
       NWT REQUIRED            4 OUTER ITERATIONS 
       AND A TOTAL OF          7 INNER ITERATIONS.
    ------------------------------------------------

 NO OUTPUT CONTROL FOR STRESS PERIOD   27   TIME STEP    9
 
 SOLVING FOR HEAD 
                                                   Max.-Head-Change                         Max.-Flux-Residual
  Residual-Control   Outer-Iter.   Inner-Iter.     Column Row Layer    Maximum-Head-Change  Column Row Layer    Maximum-Flux-Residual          L2-NORM 
          0                 1           2             3    8     1       0.1278297739E-01       6    8    1         0.4476682424E+00      0.2036769468E+01
          0                 2           2             3    8     1      -0.1231870006E-02       5    8    1         0.6365998744E-01      0.2360075154E+00
          0                 3           2             5    8     1       0.3182358097E-03       5    8    1         0.1703004226E-01      0.3732200664E-01
          0                 4           1             5    8     1       0.8756429395E-04       5    8    1         0.4712132527E-02      0.9744616373E-02

    ------------------------------------------------
       NWT REQUIRED            4 OUTER ITERATIONS 
       AND A TOTAL OF          7 INNER ITERATIONS.
    ------------------------------------------------

 NO OUTPUT CONTROL FOR STRESS PERIOD   27   TIME STEP   10
 
 SOLVING FOR HEAD 
                                                   Max.-Head-Change                         Max.-Flux-Residual
  Residual-Control   Outer-Iter.   Inner-Iter.     Column Row Layer    Maximum-Head-Change  Column Row Layer    Maximum-Flux-Residual          L2-NORM 
          0                 1           2             3    8     1       0.1266540213E-01       6    8    1         0.4448707455E+00      0.2028356484E+01
          0                 2           2             3    8     1      -0.1220280783E-02       5    8    1         0.6398460556E-01      0.2361719411E+00
          0                 3           2             5    8     1       0.3201138434E-03       5    8    1         0.1712747752E-01      0.3779371363E-01
          0                 4           1             5    8     1       0.8810967459E-04       5    8    1         0.4740310447E-02      0.9896180724E-02

    ------------------------------------------------
       NWT REQUIRED            4 OUTER ITERATIONS 
       AND A TOTAL OF          7 INNER ITERATIONS.
    ------------------------------------------------

 NO OUTPUT CONTROL FOR STRESS PERIOD   27   TIME STEP   11
 
 SOLVING FOR HEAD 
                                                   Max.-Head-Change                         Max.-Flux-Residual
  Residual-Control   Outer-Iter.   Inner-Iter.     Column Row Layer    Maximum-Head-Change  Column Row Layer    Maximum-Flux-Residual          L2-NORM 
          0                 1           2             3    8     1       0.1255016496E-01       6    8    1         0.4421662178E+00      0.2020271993E+01
          0                 2           2             3    8     1      -0.1208924821E-02       5    8    1         0.6429513515E-01      0.2363461741E+00
          0                 3           2             5    8     1       0.3219120350E-03       5    8    1         0.1722075690E-01      0.3824956406E-01
          0                 4           1             5    8     1       0.8863200974E-04       5    8    1         0.4767292181E-02      0.1004209722E-01

    ------------------------------------------------
       NWT REQUIRED            4 OUTER ITERATIONS 
       AND A TOTAL OF          7 INNER ITERATIONS.
    ------------------------------------------------

 NO OUTPUT CONTROL FOR STRESS PERIOD   27   TIME STEP   12
 
 SOLVING FOR HEAD 
                                                   Max.-Head-Change                         Max.-Flux-Residual
  Residual-Control   Outer-Iter.   Inner-Iter.     Column Row Layer    Maximum-Head-Change  Column Row Layer    Maximum-Flux-Residual          L2-NORM 
          0                 1           2             3    8     1       0.1243720582E-01       6    8    1         0.4395433677E+00      0.2012498421E+01
          0                 2           2             3    8     1      -0.1197796069E-02       5    8    1         0.6459211868E-01      0.2365298580E+00
          0                 3           2             5    8     1       0.3236335167E-03       5    8    1         0.1731004141E-01      0.3869083712E-01
          0                 4           1             5    8     1       0.8913222170E-04       5    8    1         0.4793124893E-02      0.1018284108E-01

    ------------------------------------------------
       NWT REQUIRED            4 OUTER ITERATIONS 
       AND A TOTAL OF          7 INNER ITERATIONS.
    ------------------------------------------------

 NO OUTPUT CONTROL FOR STRESS PERIOD   27   TIME STEP   13
 
 SOLVING FOR HEAD 
                                                   Max.-Head-Change                         Max.-Flux-Residual
  Residual-Control   Outer-Iter.   Inner-Iter.     Column Row Layer    Maximum-Head-Change  Column Row Layer    Maximum-Flux-Residual          L2-NORM 
          0                 1           2             3    8     1       0.1232667147E-01       6    8    1         0.4369988664E+00      0.2004995802E+01
          0                 2           2             3    8     1      -0.1186908651E-02       5    8    1         0.6487394528E-01      0.2367167187E+00
          0                 3           2             5    8     1       0.3252709688E-03       5    8    1         0.1739492140E-01      0.3911643520E-01
          0                 4           1             5    8     1       0.8960841012E-04       5    8    1         0.4817701926E-02      0.1031817143E-01

    ------------------------------------------------
       NWT REQUIRED            4 OUTER ITERATIONS 
       AND A TOTAL OF          7 INNER ITERATIONS.
    ------------------------------------------------

 NO OUTPUT CONTROL FOR STRESS PERIOD   27   TIME STEP   14
 
 SOLVING FOR HEAD 
                                                   Max.-Head-Change                         Max.-Flux-Residual
  Residual-Control   Outer-Iter.   Inner-Iter.     Column Row Layer    Maximum-Head-Change  Column Row Layer    Maximum-Flux-Residual          L2-NORM 
          0                 1           2             3    8     1       0.1221807970E-01       6    8    1         0.4345365123E+00      0.1997756010E+01
          0                 2           2             5    8     1       0.1187100028E-02       5    8    1         0.6514344088E-01      0.2369074613E+00
          0                 3           2             5    8     1       0.3268383472E-03       5    8    1         0.1747615475E-01      0.3952766157E-01
          0                 4           1             5    8     1       0.9006436455E-04       5    8    1         0.4841229012E-02      0.1044857655E-01

    ------------------------------------------------
       NWT REQUIRED            4 OUTER ITERATIONS 
       AND A TOTAL OF          7 INNER ITERATIONS.
    ------------------------------------------------

 NO OUTPUT CONTROL FOR STRESS PERIOD   27   TIME STEP   15
 
 SOLVING FOR HEAD 
                                                   Max.-Head-Change                         Max.-Flux-Residual
  Residual-Control   Outer-Iter.   Inner-Iter.     Column Row Layer    Maximum-Head-Change  Column Row Layer    Maximum-Flux-Residual          L2-NORM 
          0                 1           2             3    8     1       0.1211200602E-01       6    8    1         0.4321439679E+00      0.1990746180E+01
          0                 2           2             5    8     1       0.1192201497E-02       5    8    1         0.6539896012E-01      0.2370980843E+00
          0                 3           2             5    8     1       0.3283286071E-03       5    8    1         0.1755333893E-01      0.3992432871E-01
          0                 4           1             5    8     1       0.9049831822E-04       5    8    1         0.4863604411E-02      0.1057403313E-01

    ------------------------------------------------
       NWT REQUIRED            4 OUTER ITERATIONS 
       AND A TOTAL OF          7 INNER ITERATIONS.
    ------------------------------------------------

 NO OUTPUT CONTROL FOR STRESS PERIOD   27   TIME STEP   16
 
 SOLVING FOR HEAD 
                                                   Max.-Head-Change                         Max.-Flux-Residual
  Residual-Control   Outer-Iter.   Inner-Iter.     Column Row Layer    Maximum-Head-Change  Column Row Layer    Maximum-Flux-Residual          L2-NORM 
          0                 1           2             3    8     1       0.1200775720E-01       6    8    1         0.4298213505E+00      0.1983951765E+01
          0                 2           2             5    8     1       0.1197042106E-02       5    8    1         0.6564105954E-01      0.2372860603E+00
          0                 3           2             5    8     1       0.3297439566E-03       5    8    1         0.1762660675E-01      0.4030618072E-01
          0                 4           1             5    8     1       0.9091078847E-04       5    8    1         0.4884859381E-02      0.1069454224E-01

    ------------------------------------------------
       NWT REQUIRED            4 OUTER ITERATIONS 
       AND A TOTAL OF          7 INNER ITERATIONS.
    ------------------------------------------------

 NO OUTPUT CONTROL FOR STRESS PERIOD   27   TIME STEP   17
 
 SOLVING FOR HEAD 
                                                   Max.-Head-Change                         Max.-Flux-Residual
  Residual-Control   Outer-Iter.   Inner-Iter.     Column Row Layer    Maximum-Head-Change  Column Row Layer    Maximum-Flux-Residual          L2-NORM 
          0                 1           2             3    8     1       0.1190570078E-01       6    8    1         0.4275639206E+00      0.1977368302E+01
          0                 2           2             5    8     1       0.1201672676E-02       5    8    1         0.6587248497E-01      0.2374727895E+00
          0                 3           2             5    8     1       0.3310984103E-03       5    8    1         0.1769670948E-01      0.4067457933E-01
          0                 4           1             5    8     1       0.9130564402E-04       5    8    1         0.4905201509E-02      0.1081055028E-01

    ------------------------------------------------
       NWT REQUIRED            4 OUTER ITERATIONS 
       AND A TOTAL OF          7 INNER ITERATIONS.
    ------------------------------------------------

 NO OUTPUT CONTROL FOR STRESS PERIOD   27   TIME STEP   18
 
 SOLVING FOR HEAD 
                                                   Max.-Head-Change                         Max.-Flux-Residual
  Residual-Control   Outer-Iter.   Inner-Iter.     Column Row Layer    Maximum-Head-Change  Column Row Layer    Maximum-Flux-Residual          L2-NORM 
          0                 1           2             3    8     1       0.1180577974E-01       6    8    1         0.4253764044E+00      0.1970970280E+01
          0                 2           2             5    8     1       0.1206061656E-02       5    8    1         0.6609145098E-01      0.2376545134E+00
          0                 3           2             5    8     1       0.3323836600E-03       5    8    1         0.1776318810E-01      0.4102907170E-01
          0                 4           1             5    8     1       0.9168069616E-04       5    8    1         0.4924509193E-02      0.1092199080E-01

    ------------------------------------------------
       NWT REQUIRED            4 OUTER ITERATIONS 
       AND A TOTAL OF          7 INNER ITERATIONS.
    ------------------------------------------------

 NO OUTPUT CONTROL FOR STRESS PERIOD   27   TIME STEP   19
 
 SOLVING FOR HEAD 
                                                   Max.-Head-Change                         Max.-Flux-Residual
  Residual-Control   Outer-Iter.   Inner-Iter.     Column Row Layer    Maximum-Head-Change  Column Row Layer    Maximum-Flux-Residual          L2-NORM 
          0                 1           2             3    8     1       0.1170772816E-01       6    8    1         0.4232557664E+00      0.1964747227E+01
          0                 2           2             5    8     1       0.1210219212E-02       5    8    1         0.6629852950E-01      0.2378306235E+00
          0                 3           2             5    8     1       0.3336024619E-03       5    8    1         0.1782619108E-01      0.4137016112E-01
          0                 4           1             5    8     1       0.9203669334E-04       5    8    1         0.4942823125E-02      0.1102903085E-01

    ------------------------------------------------
       NWT REQUIRED            4 OUTER ITERATIONS 
       AND A TOTAL OF          7 INNER ITERATIONS.
    ------------------------------------------------

 NO OUTPUT CONTROL FOR STRESS PERIOD   27   TIME STEP   20
 
 SOLVING FOR HEAD 
                                                   Max.-Head-Change                         Max.-Flux-Residual
  Residual-Control   Outer-Iter.   Inner-Iter.     Column Row Layer    Maximum-Head-Change  Column Row Layer    Maximum-Flux-Residual          L2-NORM 
          0                 1           2             3    8     1       0.1161170549E-01       6    8    1         0.4211843526E+00      0.1958693118E+01
          0                 2           2             5    8     1       0.1214193071E-02       5    8    1         0.6649627330E-01      0.2380006018E+00
          0                 3           2             5    8     1       0.3347678602E-03       5    8    1         0.1788642528E-01      0.4169814435E-01
          0                 4           1             5    8     1       0.9237720540E-04       5    8    1         0.4960335927E-02      0.1113182460E-01

    ------------------------------------------------
       NWT REQUIRED            4 OUTER ITERATIONS 
       AND A TOTAL OF          7 INNER ITERATIONS.
    ------------------------------------------------

 NO OUTPUT CONTROL FOR STRESS PERIOD   27   TIME STEP   21
 
 SOLVING FOR HEAD 
                                                   Max.-Head-Change                         Max.-Flux-Residual
  Residual-Control   Outer-Iter.   Inner-Iter.     Column Row Layer    Maximum-Head-Change  Column Row Layer    Maximum-Flux-Residual          L2-NORM 
          0                 1           2             3    8     1       0.1151744926E-01       6    8    1         0.4191823277E+00      0.1952788943E+01
          0                 2           2             5    8     1       0.1217952756E-02       5    8    1         0.6668300054E-01      0.2381634895E+00
          0                 3           2             5    8     1       0.3358719431E-03       5    8    1         0.1794344473E-01      0.4201364925E-01
          0                 4           1             5    8     1       0.9270018154E-04       5    8    1         0.4976932448E-02      0.1123057429E-01

    ------------------------------------------------
       NWT REQUIRED            4 OUTER ITERATIONS 
       AND A TOTAL OF          7 INNER ITERATIONS.
    ------------------------------------------------

 NO OUTPUT CONTROL FOR STRESS PERIOD   27   TIME STEP   22
 
 SOLVING FOR HEAD 
                                                   Max.-Head-Change                         Max.-Flux-Residual
  Residual-Control   Outer-Iter.   Inner-Iter.     Column Row Layer    Maximum-Head-Change  Column Row Layer    Maximum-Flux-Residual          L2-NORM 
          0                 1           2             3    8     1       0.1142512076E-01       6    8    1         0.4172244110E+00      0.1947030401E+01
          0                 2           2             5    8     1       0.1221542394E-02       5    8    1         0.6686108729E-01      0.2383192240E+00
          0                 3           2             5    8     1       0.3369264024E-03       5    8    1         0.1799790025E-01      0.4231708825E-01
          0                 4           1             5    8     1       0.9300872077E-04       5    8    1         0.4992783731E-02      0.1132543398E-01

    ------------------------------------------------
       NWT REQUIRED            4 OUTER ITERATIONS 
       AND A TOTAL OF          7 INNER ITERATIONS.
    ------------------------------------------------

 NO OUTPUT CONTROL FOR STRESS PERIOD   27   TIME STEP   23
 
 SOLVING FOR HEAD 
                                                   Max.-Head-Change                         Max.-Flux-Residual
  Residual-Control   Outer-Iter.   Inner-Iter.     Column Row Layer    Maximum-Head-Change  Column Row Layer    Maximum-Flux-Residual          L2-NORM 
          0                 1           2             3    8     1       0.1133446022E-01       6    8    1         0.4153237026E+00      0.1941412632E+01
          0                 2           2             5    8     1       0.1224892293E-02       5    8    1         0.6702672658E-01      0.2384655586E+00
          0                 3           2             5    8     1       0.3379128335E-03       5    8    1         0.1804876809E-01      0.4260784030E-01
          0                 4           1             5    8     1       0.9329796119E-04       5    8    1         0.5007620631E-02      0.1141624317E-01

    ------------------------------------------------
       NWT REQUIRED            4 OUTER ITERATIONS 
       AND A TOTAL OF          7 INNER ITERATIONS.
    ------------------------------------------------

 NO OUTPUT CONTROL FOR STRESS PERIOD   27   TIME STEP   24
 
 SOLVING FOR HEAD 
                                                   Max.-Head-Change                         Max.-Flux-Residual
  Residual-Control   Outer-Iter.   Inner-Iter.     Column Row Layer    Maximum-Head-Change  Column Row Layer    Maximum-Flux-Residual          L2-NORM 
          0                 1           2             3    8     1       0.1124563332E-01       6    8    1         0.4134775155E+00      0.1935917856E+01
          0                 2           2             5    8     1       0.1228090686E-02       5    8    1         0.6718469981E-01      0.2386029089E+00
          0                 3           2             5    8     1       0.3388550618E-03       5    8    1         0.1809734934E-01      0.4288704892E-01
          0                 4           1             4    8     1       0.9367981485E-04       5    8    1         0.5021793852E-02      0.1150337934E-01

    ------------------------------------------------
       NWT REQUIRED            4 OUTER ITERATIONS 
       AND A TOTAL OF          7 INNER ITERATIONS.
    ------------------------------------------------

 NO OUTPUT CONTROL FOR STRESS PERIOD   27   TIME STEP   25
 
 SOLVING FOR HEAD 
                                                   Max.-Head-Change                         Max.-Flux-Residual
  Residual-Control   Outer-Iter.   Inner-Iter.     Column Row Layer    Maximum-Head-Change  Column Row Layer    Maximum-Flux-Residual          L2-NORM 
          0                 1           2             3    8     1       0.1115859124E-01       6    8    1         0.4116762001E+00      0.1930550229E+01
          0                 2           2             5    8     1       0.1231140586E-02       5    8    1         0.6733516216E-01      0.2387322347E+00
          0                 3           2             5    8     1       0.3397538713E-03       5    8    1         0.1814368885E-01      0.4315526083E-01
          0                 4           1             4    8     1       0.9425990002E-04       5    8    1         0.5035314811E-02      0.1158702508E-01

    ------------------------------------------------
       NWT REQUIRED            4 OUTER ITERATIONS 
       AND A TOTAL OF          7 INNER ITERATIONS.
    ------------------------------------------------

 NO OUTPUT CONTROL FOR STRESS PERIOD   27   TIME STEP   26
 
 SOLVING FOR HEAD 
                                                   Max.-Head-Change                         Max.-Flux-Residual
  Residual-Control   Outer-Iter.   Inner-Iter.     Column Row Layer    Maximum-Head-Change  Column Row Layer    Maximum-Flux-Residual          L2-NORM 
          0                 1           2             3    8     1       0.1107328679E-01       6    8    1         0.4099181843E+00      0.1925292891E+01
          0                 2           2             5    8     1       0.1233972240E-02       5    8    1         0.6747423732E-01      0.2388505589E+00
          0                 3           2             5    8     1       0.3405910337E-03       5    8    1         0.1818676751E-01      0.4341193042E-01
          0                 4           1             4    8     1       0.9481472260E-04       5    8    1         0.5047917529E-02      0.1166703595E-01

    ------------------------------------------------
       NWT REQUIRED            4 OUTER ITERATIONS 
       AND A TOTAL OF          7 INNER ITERATIONS.
    ------------------------------------------------

 NO OUTPUT CONTROL FOR STRESS PERIOD   27   TIME STEP   27
 
 SOLVING FOR HEAD 
                                                   Max.-Head-Change                         Max.-Flux-Residual
  Residual-Control   Outer-Iter.   Inner-Iter.     Column Row Layer    Maximum-Head-Change  Column Row Layer    Maximum-Flux-Residual          L2-NORM 
          0                 1           2             3    8     1       0.1098946521E-01       6    8    1         0.4082085437E+00      0.1920149734E+01
          0                 2           2             5    8     1       0.1236669822E-02       5    8    1         0.6760659358E-01      0.2389595799E+00
          0                 3           2             5    8     1       0.3413886514E-03       5    8    1         0.1822781620E-01      0.4365791787E-01
          0                 4           1             4    8     1       0.9534343596E-04       5    8    1         0.5059924980E-02      0.1174368034E-01

    ------------------------------------------------
       NWT REQUIRED            4 OUTER ITERATIONS 
       AND A TOTAL OF          7 INNER ITERATIONS.
    ------------------------------------------------

 NO OUTPUT CONTROL FOR STRESS PERIOD   27   TIME STEP   28
 
 SOLVING FOR HEAD 
                                                   Max.-Head-Change                         Max.-Flux-Residual
  Residual-Control   Outer-Iter.   Inner-Iter.     Column Row Layer    Maximum-Head-Change  Column Row Layer    Maximum-Flux-Residual          L2-NORM 
          0                 1           2             3    8     1       0.1090729609E-01       6    8    1         0.4065455295E+00      0.1915108995E+01
          0                 2           2             5    8     1       0.1239162802E-02       5    8    1         0.6772825095E-01      0.2390669538E+00
          0                 3           2             5    8     1       0.3421285344E-03       5    8    1         0.1826580977E-01      0.4389340240E-01
          0                 4           1             4    8     1       0.9584882346E-04       4    8    1         0.5072612026E-02      0.1181697565E-01

    ------------------------------------------------
       NWT REQUIRED            4 OUTER ITERATIONS 
       AND A TOTAL OF          7 INNER ITERATIONS.
    ------------------------------------------------

 NO OUTPUT CONTROL FOR STRESS PERIOD   27   TIME STEP   29
 
 SOLVING FOR HEAD 
                                                   Max.-Head-Change                         Max.-Flux-Residual
  Residual-Control   Outer-Iter.   Inner-Iter.     Column Row Layer    Maximum-Head-Change  Column Row Layer    Maximum-Flux-Residual          L2-NORM 
          0                 1           2             3    8     1       0.1082652694E-01       6    8    1         0.4049195417E+00      0.1910155041E+01
          0                 2           2             5    8     1       0.1241573574E-02       5    8    1         0.6784598278E-01      0.2391459106E+00
          0                 3           2             5    8     1       0.3428430685E-03       5    8    1         0.1830254026E-01      0.4411871798E-01
          0                 4           1             4    8     1       0.9633202562E-04       4    8    1         0.5098006734E-02      0.1188721364E-01

    ------------------------------------------------
       NWT REQUIRED            4 OUTER ITERATIONS 
       AND A TOTAL OF          7 INNER ITERATIONS.
    ------------------------------------------------

 NO OUTPUT CONTROL FOR STRESS PERIOD   27   TIME STEP   30



 STREAM LISTING     PERIOD     27   STEP       30

 LAYER ROW COL. STREAM  RCH.  FLOW INTO     FLOW TO   FLOW OUT OF   OVRLND.     DIRECT     STREAM       STREAM     STREAM     STREAM   STREAMBED  STREAMBED
                SEG.NO.  NO.  STRM. RCH.    AQUIFER    STRM. RCH.    RUNOFF     PRECIP       ET          HEAD       DEPTH      WIDTH   CONDCTNC.   GRADIENT

   1    1    1     1     1    1.5750E+01  1.9239E-01   1.5557E+01  0.000E+00  0.000E+00  0.000E+00  1.09407E+03  1.025E+00  1.062E+01  4.780E-02  1.342E+00
   1    2    2     1     2    1.5557E+01  2.9659E-01   1.5261E+01  0.000E+00  0.000E+00  0.000E+00  1.08908E+03  1.020E+00  1.054E+01  7.378E-02  1.340E+00
   1    3    3     1     3    1.5261E+01  2.5163E-01   1.5009E+01  0.000E+00  0.000E+00  0.000E+00  1.08343E+03  1.015E+00  1.045E+01  6.268E-02  1.338E+00
   1    3    4     1     4    1.5009E+01  2.3063E-01   1.4778E+01  0.000E+00  0.000E+00  0.000E+00  1.07842E+03  1.010E+00  1.036E+01  5.751E-02  1.337E+00
   1    4    5     2     1    1.2778E+01  2.9653E-01   1.2482E+01  0.000E+00  0.000E+00  0.000E+00  1.07274E+03  8.017E-01  1.200E+01  7.800E-02  1.267E+00
   1    5    6     2     2    1.2482E+01  2.2750E-01   1.2254E+01  0.000E+00  0.000E+00  0.000E+00  1.06730E+03  7.916E-01  1.200E+01  6.000E-02  1.264E+00
   1    6    6     2     3    1.2254E+01  2.2697E-01   1.2027E+01  0.000E+00  0.000E+00  0.000E+00  1.06258E+03  7.829E-01  1.200E+01  6.000E-02  1.261E+00
   1    7    6     2     4    1.2027E+01  2.2644E-01   1.1801E+01  0.000E+00  0.000E+00  0.000E+00  1.05785E+03  7.741E-01  1.200E+01  6.000E-02  1.258E+00
   1    8    6     2     5    1.1801E+01  2.2591E-01   1.1575E+01  0.000E+00  0.000E+00  0.000E+00  1.05312E+03  7.652E-01  1.200E+01  6.000E-02  1.255E+00
   1    3    5     3     1    2.0000E+00  2.8252E-01   1.7175E+00  0.000E+00  0.000E+00  0.000E+00  1.07555E+03  1.909E+00  9.636E+00  7.227E-02  1.955E+00
   1    3    6     3     2    1.7175E+00  2.4905E-01   1.4684E+00  0.000E+00  0.000E+00  0.000E+00  1.07264E+03  1.727E+00  8.909E+00  6.682E-02  1.864E+00
   1    3    7     3     3    1.4684E+00  1.9718E-01   1.2712E+00  0.000E+00  0.000E+00  0.000E+00  1.06987E+03  1.555E+00  8.218E+00  5.547E-02  1.777E+00
   1    4    8     3     4    1.2712E+00  2.2567E-01   1.0456E+00  0.000E+00  0.000E+00  0.000E+00  1.06682E+03  1.364E+00  7.455E+00  6.709E-02  1.682E+00
   1    5    8     3     5    1.0456E+00  1.5790E-01   8.8768E-01  0.000E+00  0.000E+00  0.000E+00  1.06362E+03  1.164E+00  6.655E+00  4.991E-02  1.582E+00
   1    6    8     3     6    8.8768E-01  5.5980E-02   8.3170E-01  0.000E+00  0.000E+00  0.000E+00  1.06158E+03  1.036E+00  6.145E+00  1.844E-02  1.518E+00
   1    5   10     4     1    1.0000E+01  9.0919E-02   9.9091E+00  0.000E+00  0.000E+00  0.000E+00  1.07836E+03  6.368E-01  1.000E+01  2.500E-02  1.212E+00
   1    5    9     4     2    9.9091E+00  1.8158E-01   9.7275E+00  0.000E+00  0.000E+00  0.000E+00  1.07154E+03  6.315E-01  1.000E+01  5.000E-02  1.211E+00
   1    6    8     4     3    9.7275E+00  1.2689E-01   9.6006E+00  0.000E+00  0.000E+00  0.000E+00  1.06381E+03  6.256E-01  1.000E+01  3.500E-02  1.209E+00
   1    6    8     5     1    1.0432E+01  2.2686E-01   1.0205E+01  0.000E+00  0.000E+00  0.000E+00  1.05868E+03  6.790E-01  1.542E+01  6.166E-02  1.226E+00
   1    7    7     5     2    1.0205E+01  2.7894E-01   9.9265E+00  0.000E+00  0.000E+00  0.000E+00  1.05417E+03  6.732E-01  1.519E+01  7.594E-02  1.224E+00
   1    8    7     5     3    9.9265E+00  1.9221E-01   9.7343E+00  0.000E+00  0.000E+00  0.000E+00  1.04992E+03  6.676E-01  1.497E+01  5.241E-02  1.223E+00
   1    8    6     5     4    9.7343E+00  1.3577E-01   9.5985E+00  0.000E+00  0.000E+00  0.000E+00  1.04691E+03  6.637E-01  1.482E+01  3.706E-02  1.221E+00
   1    9    6     6     1    2.1173E+01  2.4608E-01   2.0927E+01  0.000E+00  0.000E+00  0.000E+00  1.04383E+03  1.101E+00  1.200E+01  6.000E-02  1.367E+00
   1   10    7     6     2    2.0927E+01  2.4562E-01   2.0682E+01  0.000E+00  0.000E+00  0.000E+00  1.03928E+03  1.094E+00  1.200E+01  6.000E-02  1.365E+00
   1   11    7     6     3    2.0682E+01  2.4515E-01   2.0437E+01  0.000E+00  0.000E+00  0.000E+00  1.03472E+03  1.086E+00  1.200E+01  6.000E-02  1.362E+00
   1   12    7     6     4    2.0437E+01  2.4468E-01   2.0192E+01  0.000E+00  0.000E+00  0.000E+00  1.03017E+03  1.078E+00  1.200E+01  6.000E-02  1.359E+00
   1   13    7     6     5    2.0192E+01  1.5591E-02   2.0176E+01  0.000E+00  0.000E+00  0.000E+00  1.02698E+03  1.074E+00  1.200E+01  2.400E-02  2.165E-01
   1   14    9     7     1    1.5000E+02  1.4003E+00   1.4860E+02  0.000E+00  0.000E+00  0.000E+00  1.03987E+03  2.288E+00  5.529E+01  5.593E-01  8.346E-01
   1   13    8     7     2    1.4860E+02  2.0636E+00   1.4654E+02  0.000E+00  0.000E+00  0.000E+00  1.03478E+03  2.278E+00  5.525E+01  6.147E-01  1.119E+00
   1   13    7     7     3    1.4654E+02  1.8725E+00   1.4466E+02  0.000E+00  0.000E+00  0.000E+00  1.02969E+03  2.268E+00  5.521E+01  5.583E-01  1.118E+00
   1   13    6     8     1    1.6484E+02  1.2806E+00   1.6356E+02  0.000E+00  0.000E+00  0.000E+00  1.02479E+03  2.914E+00  4.225E+01  4.306E-01  9.914E-01
   1   13    5     8     2    1.6356E+02  5.0459E-01   1.6305E+02  0.000E+00  0.000E+00  0.000E+00  1.01853E+03  2.908E+00  4.217E+01  4.297E-01  3.914E-01
   1   13    4     8     3    1.6305E+02 -1.3388E+00   1.6439E+02  0.000E+00  0.000E+00  0.000E+00  1.01229E+03  2.911E+00  4.221E+01  4.301E+00 -1.038E-01
   1   13    3     8     4    1.6439E+02 -3.0954E+00   1.6749E+02  0.000E+00  0.000E+00  0.000E+00  1.00605E+03  2.926E+00  4.242E+01  4.323E+00 -2.387E-01
   1   13    2     8     5    1.6749E+02 -2.4244E+00   1.6991E+02  0.000E+00  0.000E+00  0.000E+00  9.99819E+02  2.944E+00  4.268E+01  4.350E+00 -1.858E-01
   1   13    1     8     6    1.6991E+02 -1.9249E+00   1.7184E+02  0.000E+00  0.000E+00  0.000E+00  9.94833E+02  2.958E+00  4.289E+01  2.622E+00 -2.447E-01
   1    8    6     9     1    0.0000E+00  0.0000E+00   0.0000E+00  0.000E+00  0.000E+00  0.000E+00  1.07875E+03  0.000E+00  4.000E+00  0.000E+00  1.000E+00
   1    8    5     9     2    0.0000E+00  0.0000E+00   0.0000E+00  0.000E+00  0.000E+00  0.000E+00  1.07825E+03  0.000E+00  4.000E+00  0.000E+00  1.000E+00





UNSATURATED ZONE PACKAGE VOLUMETRIC BUDGET FOR  TIME STEP    30 STRESS PERIOD   27
  ------------------------------------------------------------------------------



     CUMULATIVE VOLUMES      L**3       RATES FOR THIS TIME STEP      L**3/T
     ------------------                 ------------------------

           IN:                                      IN:
           ---                                      ---
        INFILTRATION =  6667522150.1581          INFILTRATION =           0.8475

          OUT:                                     OUT:
          ----                                     ----
              UZF ET =   866542128.9272                UZF ET =           0.7500
        UZF RECHARGE =  5375889452.3247          UZF RECHARGE =           6.9652

            IN - OUT =   425090568.9062              IN - OUT =          -6.8677

          STORAGE:                                 STORAGE:
          --------                                 --------
      STORAGE CHANGE =   425802500.9212        STORAGE CHANGE =          -6.8677

 PERCENT DISCREPANCY IS DIFFERENCE BETWEEN IN-OUT MINUS CHANGE IN STORAGE
 DIVIDED BY THE AVERAGE OF IN AND OUT TIMES 100

 PERCENT DISCREPANCY =          -0.00     PERCENT DISCREPANCY =          -0.00






1
  VOLUMETRIC BUDGET FOR AGRICULTURAL FIELDS AT  END OF TIME STEP   30, STRESS PERIOD  27
  ------------------------------------------------------------------------------

     CUMULATIVE VOLUMES      L**3       RATES FOR THIS TIME STEP      L**3/T
     ------------------                 ------------------------

           IN:                                      IN:
           ---                                      ---
               AG WELLS  =  6318206976.0000                 AG WELLS  =           0.0000
      DIVERSION SEGMENTS =   291316640.0000        DIVERSION SEGMENTS =           0.0000
           GW IRRIGATION =           0.0000             GW IRRIGATION =           0.0000
           SW IRRIGATION =           0.0000             SW IRRIGATION =           0.0000
        SYSTEM LOSSES GW =           0.0000          SYSTEM LOSSES GW =           0.0000
        SYSTEM LOSSES SW =           0.0000          SYSTEM LOSSES SW =           0.0000

                TOTAL IN =  6609523712.0000                  TOTAL IN =           0.0000

          OUT:                                     OUT:
          ----                                     ----
               AG WELLS  =           0.0000                 AG WELLS  =           0.0000
      DIVERSION SEGMENTS =           0.0000        DIVERSION SEGMENTS =           0.0000
           GW IRRIGATION =  6318206976.0000             GW IRRIGATION =           0.0000
           SW IRRIGATION =   291322048.0000             SW IRRIGATION =           0.0000
        SYSTEM LOSSES GW =           0.0000          SYSTEM LOSSES GW =           0.0000
        SYSTEM LOSSES SW =           0.0000          SYSTEM LOSSES SW =           0.0000

               TOTAL OUT =  6609528832.0000                 TOTAL OUT =           0.0000

                IN - OUT =       -5120.0000                  IN - OUT =           0.0000

     PERCENT DISCREPANCY =          -0.00         PERCENT DISCREPANCY =           0.00



1
  VOLUMETRIC BUDGET FOR ENTIRE MODEL AT END OF TIME STEP   30, STRESS PERIOD  27
  ------------------------------------------------------------------------------

     CUMULATIVE VOLUMES      L**3       RATES FOR THIS TIME STEP      L**3/T
     ------------------                 ------------------------

           IN:                                      IN:
           ---                                      ---
             STORAGE     =  5815212032.0000               STORAGE     =           2.2005
       CONSTANT HEAD     =           0.0000         CONSTANT HEAD     =           0.0000
     HEAD DEP BOUNDS     =    19756830.0000       HEAD DEP BOUNDS     =           0.2901
      STREAM LEAKAGE     =   825779328.0000        STREAM LEAKAGE     =          12.6947
        UZF RECHARGE     =  5375888384.0000          UZF RECHARGE     =           6.9652
               GW ET     =           0.0000                 GW ET     =           0.0000
     SURFACE LEAKAGE     =           0.0000       SURFACE LEAKAGE     =           0.0000
           AG WELLS      =           0.0000             AG WELLS      =           0.0000

                TOTAL IN = 12036636672.0000                  TOTAL IN =          22.1506

          OUT:                                     OUT:
          ----                                     ----
             STORAGE     =  5040249344.0000               STORAGE     =          13.0714
       CONSTANT HEAD     =           0.0000         CONSTANT HEAD     =           0.0000
     HEAD DEP BOUNDS     =    19704812.0000       HEAD DEP BOUNDS     =           0.2875
      STREAM LEAKAGE     =   658380224.0000        STREAM LEAKAGE     =           8.7835
        UZF RECHARGE     =           0.0000          UZF RECHARGE     =           0.0000
               GW ET     =           0.0000                 GW ET     =           0.0000
     SURFACE LEAKAGE     =           0.0000       SURFACE LEAKAGE     =           0.0000
           AG WELLS      =  6318206976.0000             AG WELLS      =           0.0000

               TOTAL OUT = 12036541440.0000                 TOTAL OUT =          22.1424

                IN - OUT =       95232.0000                  IN - OUT =       8.2378E-03

     PERCENT DISCREPANCY =           0.00         PERCENT DISCREPANCY =           0.04






         TIME SUMMARY AT END OF TIME STEP   30 IN STRESS PERIOD   27
                    SECONDS     MINUTES      HOURS       DAYS        YEARS
                    -----------------------------------------------------------
   TIME STEP LENGTH  87667.      1461.1      24.352      1.0147     2.77799E-03
 STRESS PERIOD TIME 2.63000E+06  43833.      730.56      30.440     8.33397E-02
         TOTAL TIME 6.84668E+07 1.14111E+06  19019.      792.44      2.1696    
1
1
                            STRESS PERIOD NO.   28, LENGTH =   2630000.    
                            -----------------------------------------------

                              NUMBER OF TIME STEPS =    30

                               MULTIPLIER FOR DELT =     1.000

                            INITIAL TIME STEP SIZE =   87666.66    

 REUSING NON-PARAMETER GHB CELLS FROM LAST STRESS PERIOD

      2 GHB CELLS

 REUSING STREAM SEGMENT DATA FROM LAST STRESS PERIOD



            AREAL INFILTRATION RATE
 READING ON UNIT   19 WITH FORMAT: (FREE)              

            1           2           3           4           5           6           7           8           9          10
 ........................................................................................................................
   1   1.0000E-10  2.0000E-10   0.000       0.000       0.000       0.000       0.000       0.000       0.000       0.000    
   2   2.0000E-10  1.0000E-10  2.0000E-10   0.000       0.000      8.0000E-10  8.0000E-10  5.0000E-10   0.000       0.000    
   3    0.000      5.0000E-10  1.0000E-10  1.0000E-10  8.0000E-10  8.0000E-10  5.0000E-10  5.0000E-10   0.000       0.000    
   4   8.0000E-10  5.0000E-10  1.0000E-10  1.0000E-10  1.0000E-10  1.0000E-10  1.0000E-10  1.0000E-10  2.0000E-10   0.000    
   5   8.0000E-10  5.0000E-10  1.0000E-10  1.0000E-10  1.0000E-10  1.0000E-10  1.0000E-10  1.0000E-10  1.0000E-10  1.0000E-10
   6   8.0000E-10  5.0000E-10  5.0000E-10  2.0000E-10  2.0000E-10  1.0000E-10  1.0000E-10  1.0000E-10  1.0000E-10  5.0000E-10
   7   8.0000E-10  5.0000E-10  5.0000E-10  2.0000E-10  2.0000E-10  1.0000E-10  1.0000E-10  2.0000E-10  2.0000E-10   0.000    
   8    0.000      5.0000E-10  5.0000E-10  2.0000E-10  2.0000E-10  1.0000E-10  1.0000E-10  2.0000E-10  5.0000E-10   0.000    
   9    0.000      5.0000E-10  5.0000E-10  2.0000E-10  2.0000E-10  1.0000E-10  1.0000E-10  2.0000E-10  5.0000E-10   0.000    
  10    0.000      5.0000E-10  5.0000E-10  2.0000E-10  2.0000E-10  1.0000E-10  1.0000E-10  2.0000E-10  5.0000E-10  8.0000E-10
  11    0.000      1.0000E-10  1.0000E-10  1.0000E-10  1.0000E-10  1.0000E-10  1.0000E-10  2.0000E-10  5.0000E-10   0.000    
  12   1.0000E-10  1.0000E-10  1.0000E-10  1.0000E-10  1.0000E-10  1.0000E-10  1.0000E-10  1.0000E-10  2.0000E-10   0.000    
  13   1.0000E-10  1.0000E-10  2.0000E-10  2.0000E-10  2.0000E-10  2.0000E-10  2.0000E-10  1.0000E-10  1.0000E-10   0.000    
  14    0.000      2.0000E-10  5.0000E-10  5.0000E-10  5.0000E-10  5.0000E-10  5.0000E-10  2.0000E-10  1.0000E-10   0.000    
  15    0.000       0.000      8.0000E-10  8.0000E-10  8.0000E-10  8.0000E-10   0.000       0.000       0.000       0.000    

                  ET RATE =  5.000000E-10

 USING ET EXTINCTION DEPTH FROM PREVIOUS STRESS PERIOD. CURRENT PERIOD IS:      28

 USING EXTINCTION WATER CONTENT FROM PREVIOUS STRESS PERIOD. CURRENT PERIOD IS:      28

 USING AIR ENTRY PRESSURE FROM PREVIOUS STRESS PERIOD. CURRENT PERIOD IS:      28

 USING ROOT PRESSURE HEAD FROM PREVIOUS STRESS PERIOD. CURRENT PERIOD IS:      28

 USING ROOT ACTIVITY FROM PREVIOUS STRESS PERIOD. CURRENT PERIOD IS:      28

 PROCESSING AG STRESS PERIOD DATA

 READING AG STRESS PERIOD DATA

 READING IRRIGATION SEGMENT

 READING IRRIGATION WELL

 READING SUPPLEMENTAL WELL

 END PROCESSING AG STRESS PERIOD DATA OPTIONS
 
 SOLVING FOR HEAD 
                                                   Max.-Head-Change                         Max.-Flux-Residual
  Residual-Control   Outer-Iter.   Inner-Iter.     Column Row Layer    Maximum-Head-Change  Column Row Layer    Maximum-Flux-Residual          L2-NORM 
          0                 1           2             3    8     1       0.1074754051E-01       6    8    1         0.4198588300E+00      0.1973503243E+01
          0                 2           2             5    8     1       0.1245069607E-02       5    8    1         0.6804873134E-01      0.2446210428E+00
          0                 3           2             4    8     1       0.3439493133E-03       5    8    1         0.1835343871E-01      0.4449331619E-01
          0                 4           1             4    8     1       0.9679882236E-04       4    8    1         0.5122465933E-02      0.1196223842E-01

    ------------------------------------------------
       NWT REQUIRED            4 OUTER ITERATIONS 
       AND A TOTAL OF          7 INNER ITERATIONS.
    ------------------------------------------------

 NO OUTPUT CONTROL FOR STRESS PERIOD   28   TIME STEP    1
 
 SOLVING FOR HEAD 
                                                   Max.-Head-Change                         Max.-Flux-Residual
  Residual-Control   Outer-Iter.   Inner-Iter.     Column Row Layer    Maximum-Head-Change  Column Row Layer    Maximum-Flux-Residual          L2-NORM 
          0                 1           2             3    8     1       0.1066987212E-01       6    8    1         0.4266850813E+00      0.2028196409E+01
          0                 2           2             5    8     1       0.1248994734E-02       5    8    1         0.6826283220E-01      0.2493908877E+00
          0                 3           2             4    8     1       0.3455227551E-03       5    8    1         0.1841149181E-01      0.4485130666E-01
          0                 4           1             4    8     1       0.9724811009E-04       4    8    1         0.5145971991E-02      0.1203736935E-01

    ------------------------------------------------
       NWT REQUIRED            4 OUTER ITERATIONS 
       AND A TOTAL OF          7 INNER ITERATIONS.
    ------------------------------------------------

 NO OUTPUT CONTROL FOR STRESS PERIOD   28   TIME STEP    2
 
 SOLVING FOR HEAD 
                                                   Max.-Head-Change                         Max.-Flux-Residual
  Residual-Control   Outer-Iter.   Inner-Iter.     Column Row Layer    Maximum-Head-Change  Column Row Layer    Maximum-Flux-Residual          L2-NORM 
          0                 1           2             3    8     1       0.1059390811E-01       6    8    1         0.4244804753E+00      0.2013427135E+01
          0                 2           2             5    8     1       0.1252657594E-02       5    8    1         0.6844915328E-01      0.2487219488E+00
          0                 3           2             4    8     1       0.3470355033E-03       5    8    1         0.1846661573E-01      0.4506026295E-01
          0                 4           1             4    8     1       0.9767989541E-04       4    8    1         0.5168568711E-02      0.1210823966E-01

    ------------------------------------------------
       NWT REQUIRED            4 OUTER ITERATIONS 
       AND A TOTAL OF          7 INNER ITERATIONS.
    ------------------------------------------------

 NO OUTPUT CONTROL FOR STRESS PERIOD   28   TIME STEP    3
 
 SOLVING FOR HEAD 
                                                   Max.-Head-Change                         Max.-Flux-Residual
  Residual-Control   Outer-Iter.   Inner-Iter.     Column Row Layer    Maximum-Head-Change  Column Row Layer    Maximum-Flux-Residual          L2-NORM 
          0                 1           2             3    8     1       0.1051918617E-01       6    8    1         0.4223357361E+00      0.2000236503E+01
          0                 2           2             5    8     1       0.1256035244E-02       5    8    1         0.6862035310E-01      0.2481620281E+00
          0                 3           2             4    8     1       0.3484789081E-03       5    8    1         0.1851750026E-01      0.4526145161E-01
          0                 4           1             4    8     1       0.9809177140E-04       4    8    1         0.5190127646E-02      0.1217569855E-01

    ------------------------------------------------
       NWT REQUIRED            4 OUTER ITERATIONS 
       AND A TOTAL OF          7 INNER ITERATIONS.
    ------------------------------------------------

 NO OUTPUT CONTROL FOR STRESS PERIOD   28   TIME STEP    4
 
 SOLVING FOR HEAD 
                                                   Max.-Head-Change                         Max.-Flux-Residual
  Residual-Control   Outer-Iter.   Inner-Iter.     Column Row Layer    Maximum-Head-Change  Column Row Layer    Maximum-Flux-Residual          L2-NORM 
          0                 1           2             3    8     1       0.1044588507E-01       6    8    1         0.4202481783E+00      0.1988403712E+01
          0                 2           2             5    8     1       0.1259183164E-02       5    8    1         0.6877943086E-01      0.2476858118E+00
          0                 3           2             4    8     1       0.3498643794E-03       5    8    1         0.1856496442E-01      0.4545559619E-01
          0                 4           1             4    8     1       0.9848699650E-04       4    8    1         0.5210819361E-02      0.1224019961E-01

    ------------------------------------------------
       NWT REQUIRED            4 OUTER ITERATIONS 
       AND A TOTAL OF          7 INNER ITERATIONS.
    ------------------------------------------------

 NO OUTPUT CONTROL FOR STRESS PERIOD   28   TIME STEP    5
 
 SOLVING FOR HEAD 
                                                   Max.-Head-Change                         Max.-Flux-Residual
  Residual-Control   Outer-Iter.   Inner-Iter.     Column Row Layer    Maximum-Head-Change  Column Row Layer    Maximum-Flux-Residual          L2-NORM 
          0                 1           2             3    8     1       0.1037396973E-01       6    8    1         0.4182231056E+00      0.1977703724E+01
          0                 2           2             5    8     1       0.1262037593E-02       5    8    1         0.6892294248E-01      0.2472820636E+00
          0                 3           2             4    8     1       0.3511832096E-03       5    8    1         0.1860806715E-01      0.4564116926E-01
          0                 4           1             4    8     1       0.9886312074E-04       4    8    1         0.5230514193E-02      0.1230140991E-01

    ------------------------------------------------
       NWT REQUIRED            4 OUTER ITERATIONS 
       AND A TOTAL OF          7 INNER ITERATIONS.
    ------------------------------------------------

 NO OUTPUT CONTROL FOR STRESS PERIOD   28   TIME STEP    6
 
 SOLVING FOR HEAD 
                                                   Max.-Head-Change                         Max.-Flux-Residual
  Residual-Control   Outer-Iter.   Inner-Iter.     Column Row Layer    Maximum-Head-Change  Column Row Layer    Maximum-Flux-Residual          L2-NORM 
          0                 1           2             3    8     1       0.1030319389E-01       6    8    1         0.4162573661E+00      0.1967990919E+01
          0                 2           2             5    8     1       0.1264693116E-02       5    8    1         0.6905602517E-01      0.2469383310E+00
          0                 3           2             4    8     1       0.3524381667E-03       5    8    1         0.1864820222E-01      0.4581931493E-01
          0                 4           1             4    8     1       0.9922106641E-04       4    8    1         0.5249255426E-02      0.1235983402E-01

    ------------------------------------------------
       NWT REQUIRED            4 OUTER ITERATIONS 
       AND A TOTAL OF          7 INNER ITERATIONS.
    ------------------------------------------------

 NO OUTPUT CONTROL FOR STRESS PERIOD   28   TIME STEP    7
 
 SOLVING FOR HEAD 
                                                   Max.-Head-Change                         Max.-Flux-Residual
  Residual-Control   Outer-Iter.   Inner-Iter.     Column Row Layer    Maximum-Head-Change  Column Row Layer    Maximum-Flux-Residual          L2-NORM 
          0                 1           2             3    8     1       0.1023394707E-01       6    8    1         0.4143340046E+00      0.1959114244E+01
          0                 2           2             5    8     1       0.1267102191E-02       5    8    1         0.6917705320E-01      0.2466431930E+00
          0                 3           2             4    8     1       0.3536390989E-03       5    8    1         0.1868460329E-01      0.4598976170E-01
          0                 4           1             4    8     1       0.9956343929E-04       4    8    1         0.5267187288E-02      0.1241534365E-01

    ------------------------------------------------
       NWT REQUIRED            4 OUTER ITERATIONS 
       AND A TOTAL OF          7 INNER ITERATIONS.
    ------------------------------------------------

 NO OUTPUT CONTROL FOR STRESS PERIOD   28   TIME STEP    8
 
 SOLVING FOR HEAD 
                                                   Max.-Head-Change                         Max.-Flux-Residual
  Residual-Control   Outer-Iter.   Inner-Iter.     Column Row Layer    Maximum-Head-Change  Column Row Layer    Maximum-Flux-Residual          L2-NORM 
          0                 1           2             3    8     1       0.1016598246E-01       6    8    1         0.4124062775E+00      0.1950968069E+01
          0                 2           2             5    8     1       0.1269319857E-02       5    8    1         0.6928584273E-01      0.2463848642E+00
          0                 3           2             4    8     1       0.3547783702E-03       5    8    1         0.1871830330E-01      0.4615211529E-01
          0                 4           1             4    8     1       0.9988822774E-04       4    8    1         0.5284198071E-02      0.1246806012E-01

    ------------------------------------------------
       NWT REQUIRED            4 OUTER ITERATIONS 
       AND A TOTAL OF          7 INNER ITERATIONS.
    ------------------------------------------------

 NO OUTPUT CONTROL FOR STRESS PERIOD   28   TIME STEP    9
 
 SOLVING FOR HEAD 
                                                   Max.-Head-Change                         Max.-Flux-Residual
  Residual-Control   Outer-Iter.   Inner-Iter.     Column Row Layer    Maximum-Head-Change  Column Row Layer    Maximum-Flux-Residual          L2-NORM 
          0                 1           2             3    8     1       0.1009926672E-01       6    8    1         0.4105063313E+00      0.1943434470E+01
          0                 2           2             5    8     1       0.1271355098E-02       5    8    1         0.6938613755E-01      0.2461583902E+00
          0                 3           2             4    8     1       0.3558582681E-03       4    8    1         0.1876798184E-01      0.4630697340E-01
          0                 4           1             4    8     1       0.1001961317E-03       4    8    1         0.5300322637E-02      0.1251816049E-01
          0                 5           1             4    8     1       0.2821056394E-04       4    8    1         0.1491734602E-02      0.3508962278E-02

    ------------------------------------------------
       NWT REQUIRED            5 OUTER ITERATIONS 
       AND A TOTAL OF          8 INNER ITERATIONS.
    ------------------------------------------------

 NO OUTPUT CONTROL FOR STRESS PERIOD   28   TIME STEP   10
 
 SOLVING FOR HEAD 
                                                   Max.-Head-Change                         Max.-Flux-Residual
  Residual-Control   Outer-Iter.   Inner-Iter.     Column Row Layer    Maximum-Head-Change  Column Row Layer    Maximum-Flux-Residual          L2-NORM 
          0                 1           2             3    8     1       0.1003381305E-01       6    8    1         0.4086872179E+00      0.1936444742E+01
          0                 2           2             5    8     1       0.1272948770E-02       5    8    1         0.6946282778E-01      0.2459456988E+00
          0                 3           2             4    8     1       0.3568500769E-03       4    8    1         0.1882012689E-01      0.4644905534E-01
          0                 4           1             4    8     1       0.1004788751E-03       4    8    1         0.5315130689E-02      0.1256413835E-01
          0                 5           1             4    8     1       0.2829113659E-04       4    8    1         0.1495957874E-02      0.3522014799E-02

    ------------------------------------------------
       NWT REQUIRED            5 OUTER ITERATIONS 
       AND A TOTAL OF          8 INNER ITERATIONS.
    ------------------------------------------------

 NO OUTPUT CONTROL FOR STRESS PERIOD   28   TIME STEP   11
 
 SOLVING FOR HEAD 
                                                   Max.-Head-Change                         Max.-Flux-Residual
  Residual-Control   Outer-Iter.   Inner-Iter.     Column Row Layer    Maximum-Head-Change  Column Row Layer    Maximum-Flux-Residual          L2-NORM 
          0                 1           2             3    8     1       0.9969750237E-02       6    8    1         0.4069212354E+00      0.1929922698E+01
          0                 2           2             5    8     1       0.1274375123E-02       5    8    1         0.6953080398E-01      0.2457532690E+00
          0                 3           2             4    8     1       0.3577776796E-03       4    8    1         0.1886888159E-01      0.4658371694E-01
          0                 4           1             4    8     1       0.1007434741E-03       4    8    1         0.5328982053E-02      0.1260765955E-01
          0                 5           1             4    8     1       0.2836658158E-04       4    8    1         0.1499910745E-02      0.3534372764E-02

    ------------------------------------------------
       NWT REQUIRED            5 OUTER ITERATIONS 
       AND A TOTAL OF          8 INNER ITERATIONS.
    ------------------------------------------------

 NO OUTPUT CONTROL FOR STRESS PERIOD   28   TIME STEP   12
 
 SOLVING FOR HEAD 
                                                   Max.-Head-Change                         Max.-Flux-Residual
  Residual-Control   Outer-Iter.   Inner-Iter.     Column Row Layer    Maximum-Head-Change  Column Row Layer    Maximum-Flux-Residual          L2-NORM 
          0                 1           2             3    8     1       0.9906832808E-02       6    8    1         0.4051985001E+00      0.1923794119E+01
          0                 2           2             5    8     1       0.1275645017E-02       5    8    1         0.6959053400E-01      0.2455762151E+00
          0                 3           2             4    8     1       0.3586602771E-03       4    8    1         0.1891529431E-01      0.4671178095E-01
          0                 4           1             4    8     1       0.1009951203E-03       4    8    1         0.5342159416E-02      0.1264896475E-01
          0                 5           1             4    8     1       0.2843830430E-04       4    8    1         0.1503669665E-02      0.3546098794E-02

    ------------------------------------------------
       NWT REQUIRED            5 OUTER ITERATIONS 
       AND A TOTAL OF          8 INNER ITERATIONS.
    ------------------------------------------------

 NO OUTPUT CONTROL FOR STRESS PERIOD   28   TIME STEP   13
 
 SOLVING FOR HEAD 
                                                   Max.-Head-Change                         Max.-Flux-Residual
  Residual-Control   Outer-Iter.   Inner-Iter.     Column Row Layer    Maximum-Head-Change  Column Row Layer    Maximum-Flux-Residual          L2-NORM 
          0                 1           2             3    8     1       0.9845031792E-02       6    8    1         0.4035242763E+00      0.1918011280E+01
          0                 2           2             5    8     1       0.1276803513E-02       5    8    1         0.6964457516E-01      0.2454111269E+00
          0                 3           2             4    8     1       0.3594911527E-03       4    8    1         0.1895897970E-01      0.4683307441E-01
          0                 4           1             4    8     1       0.1012321233E-03       4    8    1         0.5354565746E-02      0.1268805804E-01
          0                 5           1             4    7     1       0.2856785394E-04       4    8    1         0.1507210260E-02      0.3557199827E-02

    ------------------------------------------------
       NWT REQUIRED            5 OUTER ITERATIONS 
       AND A TOTAL OF          8 INNER ITERATIONS.
    ------------------------------------------------

 NO OUTPUT CONTROL FOR STRESS PERIOD   28   TIME STEP   14
 
 SOLVING FOR HEAD 
                                                   Max.-Head-Change                         Max.-Flux-Residual
  Residual-Control   Outer-Iter.   Inner-Iter.     Column Row Layer    Maximum-Head-Change  Column Row Layer    Maximum-Flux-Residual          L2-NORM 
          0                 1           2             3    8     1       0.9784317959E-02       6    8    1         0.4018892637E+00      0.1912530564E+01
          0                 2           2             4    8     1       0.1279279932E-02       5    8    1         0.6968899101E-01      0.2452544022E+00
          0                 3           2             4    8     1       0.3602704531E-03       4    8    1         0.1899996622E-01      0.4694761211E-01
          0                 4           1             4    8     1       0.1014543922E-03       4    8    1         0.5366201189E-02      0.1272496182E-01
          0                 5           1             4    7     1       0.2870693269E-04       4    8    1         0.1510530672E-02      0.3567682118E-02

    ------------------------------------------------
       NWT REQUIRED            5 OUTER ITERATIONS 
       AND A TOTAL OF          8 INNER ITERATIONS.
    ------------------------------------------------

 NO OUTPUT CONTROL FOR STRESS PERIOD   28   TIME STEP   15
 
 SOLVING FOR HEAD 
                                                   Max.-Head-Change                         Max.-Flux-Residual
  Residual-Control   Outer-Iter.   Inner-Iter.     Column Row Layer    Maximum-Head-Change  Column Row Layer    Maximum-Flux-Residual          L2-NORM 
          0                 1           2             3    8     1       0.9724664229E-02       6    8    1         0.4002987764E+00      0.1907314283E+01
          0                 2           2             4    8     1       0.1281839768E-02       5    8    1         0.6972855834E-01      0.2451044045E+00
          0                 3           2             4    8     1       0.3610012861E-03       4    8    1         0.1903839380E-01      0.4705586305E-01
          0                 4           1             4    8     1       0.1016629583E-03       4    8    1         0.5377114442E-02      0.1275983944E-01
          0                 5           1             4    7     1       0.2883982569E-04       4    8    1         0.1513646836E-02      0.3577589415E-02

    ------------------------------------------------
       NWT REQUIRED            5 OUTER ITERATIONS 
       AND A TOTAL OF          8 INNER ITERATIONS.
    ------------------------------------------------

 NO OUTPUT CONTROL FOR STRESS PERIOD   28   TIME STEP   16
 
 SOLVING FOR HEAD 
                                                   Max.-Head-Change                         Max.-Flux-Residual
  Residual-Control   Outer-Iter.   Inner-Iter.     Column Row Layer    Maximum-Head-Change  Column Row Layer    Maximum-Flux-Residual          L2-NORM 
          0                 1           2             3    8     1       0.9666044185E-02       6    8    1         0.3987437149E+00      0.1902326385E+01
          0                 2           2             4    8     1       0.1284263684E-02       5    8    1         0.6975923103E-01      0.2449584057E+00
          0                 3           2             4    8     1       0.3616929393E-03       4    8    1         0.1907478239E-01      0.4715793757E-01
          0                 4           1             4    8     1       0.1018602491E-03       4    8    1         0.5387440943E-02      0.1279275696E-01
          0                 5           1             4    7     1       0.2896678944E-04       4    8    1         0.1516594186E-02      0.3586942698E-02

    ------------------------------------------------
       NWT REQUIRED            5 OUTER ITERATIONS 
       AND A TOTAL OF          8 INNER ITERATIONS.
    ------------------------------------------------

 NO OUTPUT CONTROL FOR STRESS PERIOD   28   TIME STEP   17
 
 SOLVING FOR HEAD 
                                                   Max.-Head-Change                         Max.-Flux-Residual
  Residual-Control   Outer-Iter.   Inner-Iter.     Column Row Layer    Maximum-Head-Change  Column Row Layer    Maximum-Flux-Residual          L2-NORM 
          0                 1           2             3    8     1       0.9608433466E-02       6    8    1         0.3972294807E+00      0.1897544943E+01
          0                 2           2             4    8     1       0.1286522542E-02       5    8    1         0.6978580371E-01      0.2448153731E+00
          0                 3           2             4    8     1       0.3623376820E-03       4    8    1         0.1910870451E-01      0.4725408603E-01
          0                 4           1             4    8     1       0.1020442138E-03       4    8    1         0.5397067428E-02      0.1282378985E-01
          0                 5           1             4    7     1       0.2908665828E-04       4    7    1         0.1521315182E-02      0.3595763754E-02

    ------------------------------------------------
       NWT REQUIRED            5 OUTER ITERATIONS 
       AND A TOTAL OF          8 INNER ITERATIONS.
    ------------------------------------------------

 NO OUTPUT CONTROL FOR STRESS PERIOD   28   TIME STEP   18
 
 SOLVING FOR HEAD 
                                                   Max.-Head-Change                         Max.-Flux-Residual
  Residual-Control   Outer-Iter.   Inner-Iter.     Column Row Layer    Maximum-Head-Change  Column Row Layer    Maximum-Flux-Residual          L2-NORM 
          0                 1           2             3    8     1       0.9551802865E-02       6    8    1         0.3957545735E+00      0.1892944834E+01
          0                 2           2             4    8     1       0.1288623827E-02       5    8    1         0.6980632051E-01      0.2446737379E+00
          0                 3           2             4    8     1       0.3629379717E-03       4    8    1         0.1914027687E-01      0.4734450463E-01
          0                 4           1             4    8     1       0.1022156339E-03       4    8    1         0.5406031819E-02      0.1285303008E-01
          0                 5           1             4    7     1       0.2920177239E-04       4    7    1         0.1527434761E-02      0.3604075311E-02

    ------------------------------------------------
       NWT REQUIRED            5 OUTER ITERATIONS 
       AND A TOTAL OF          8 INNER ITERATIONS.
    ------------------------------------------------

 NO OUTPUT CONTROL FOR STRESS PERIOD   28   TIME STEP   19
 
 SOLVING FOR HEAD 
                                                   Max.-Head-Change                         Max.-Flux-Residual
  Residual-Control   Outer-Iter.   Inner-Iter.     Column Row Layer    Maximum-Head-Change  Column Row Layer    Maximum-Flux-Residual          L2-NORM 
          0                 1           2             3    8     1       0.9496339888E-02       6    8    1         0.3943097724E+00      0.1888502165E+01
          0                 2           2             4    8     1       0.1290568664E-02       5    8    1         0.6981897087E-01      0.2445306624E+00
          0                 3           2             4    8     1       0.3634933996E-03       4    8    1         0.1916950582E-01      0.4742871061E-01
          0                 4           1             4    7     1       0.1025589093E-03       4    8    1         0.5414325241E-02      0.1288032809E-01
          0                 5           1             4    7     1       0.2931014363E-04       4    7    1         0.1533196084E-02      0.3611838598E-02

    ------------------------------------------------
       NWT REQUIRED            5 OUTER ITERATIONS 
       AND A TOTAL OF          8 INNER ITERATIONS.
    ------------------------------------------------

 NO OUTPUT CONTROL FOR STRESS PERIOD   28   TIME STEP   20
 
 SOLVING FOR HEAD 
                                                   Max.-Head-Change                         Max.-Flux-Residual
  Residual-Control   Outer-Iter.   Inner-Iter.     Column Row Layer    Maximum-Head-Change  Column Row Layer    Maximum-Flux-Residual          L2-NORM 
          0                 1           2             3    8     1       0.9441803879E-02       6    8    1         0.3928936194E+00      0.1884198819E+01
          0                 2           2             4    8     1       0.1292366828E-02       5    8    1         0.6982833662E-01      0.2443867005E+00
          0                 3           2             4    8     1       0.3640076995E-03       4    8    1         0.1919655132E-01      0.4750760390E-01
          0                 4           1             4    7     1       0.1029311711E-03       4    8    1         0.5422007046E-02      0.1290597508E-01
          0                 5           1             4    7     1       0.2941410829E-04       4    7    1         0.1538726677E-02      0.3619135678E-02

    ------------------------------------------------
       NWT REQUIRED            5 OUTER ITERATIONS 
       AND A TOTAL OF          8 INNER ITERATIONS.
    ------------------------------------------------

 NO OUTPUT CONTROL FOR STRESS PERIOD   28   TIME STEP   21
 
 SOLVING FOR HEAD 
                                                   Max.-Head-Change                         Max.-Flux-Residual
  Residual-Control   Outer-Iter.   Inner-Iter.     Column Row Layer    Maximum-Head-Change  Column Row Layer    Maximum-Flux-Residual          L2-NORM 
          0                 1           2             3    8     1       0.9388172776E-02       6    8    1         0.3915124036E+00      0.1880025086E+01
          0                 2           2             4    8     1       0.1294052353E-02       5    8    1         0.6983247867E-01      0.2442409017E+00
          0                 3           2             4    8     1       0.3644893704E-03       4    8    1         0.1922190421E-01      0.4758110085E-01
          0                 4           1             4    7     1       0.1032808612E-03       4    8    1         0.5429199620E-02      0.1292995577E-01
          0                 5           1             4    7     1       0.2951177827E-04       4    7    1         0.1543922064E-02      0.3625958707E-02

    ------------------------------------------------
       NWT REQUIRED            5 OUTER ITERATIONS 
       AND A TOTAL OF          8 INNER ITERATIONS.
    ------------------------------------------------

 NO OUTPUT CONTROL FOR STRESS PERIOD   28   TIME STEP   22
 
 SOLVING FOR HEAD 
                                                   Max.-Head-Change                         Max.-Flux-Residual
  Residual-Control   Outer-Iter.   Inner-Iter.     Column Row Layer    Maximum-Head-Change  Column Row Layer    Maximum-Flux-Residual          L2-NORM 
          0                 1           2             3    8     1       0.9335423108E-02       6    8    1         0.3901644478E+00      0.1875972495E+01
          0                 2           2             4    8     1       0.1295565008E-02       5    8    1         0.6983168246E-01      0.2440942656E+00
          0                 3           2             4    8     1       0.3649225812E-03       4    8    1         0.1924468405E-01      0.4764994119E-01
          0                 4           1             4    7     1       0.1036142309E-03       4    8    1         0.5435671617E-02      0.1295248668E-01
          0                 5           1             4    7     1       0.2960484784E-04       4    7    1         0.1548874386E-02      0.3632373385E-02

    ------------------------------------------------
       NWT REQUIRED            5 OUTER ITERATIONS 
       AND A TOTAL OF          8 INNER ITERATIONS.
    ------------------------------------------------

 NO OUTPUT CONTROL FOR STRESS PERIOD   28   TIME STEP   23
 
 SOLVING FOR HEAD 
                                                   Max.-Head-Change                         Max.-Flux-Residual
  Residual-Control   Outer-Iter.   Inner-Iter.     Column Row Layer    Maximum-Head-Change  Column Row Layer    Maximum-Flux-Residual          L2-NORM 
          0                 1           2             3    8     1       0.9283532194E-02       6    8    1         0.3888483476E+00      0.1872021947E+01
          0                 2           2             4    8     1       0.1296975132E-02       5    8    1         0.6982623738E-01      0.2439440326E+00
          0                 3           2             4    8     1       0.3653262434E-03       4    8    1         0.1926592602E-01      0.4771358166E-01
          0                 4           1             4    7     1       0.1039288946E-03       4    8    1         0.5441701112E-02      0.1297341180E-01
          0                 5           1             4    7     1       0.2969265533E-04       4    7    1         0.1553548246E-02      0.3638332552E-02

    ------------------------------------------------
       NWT REQUIRED            5 OUTER ITERATIONS 
       AND A TOTAL OF          8 INNER ITERATIONS.
    ------------------------------------------------

 NO OUTPUT CONTROL FOR STRESS PERIOD   28   TIME STEP   24
 
 SOLVING FOR HEAD 
                                                   Max.-Head-Change                         Max.-Flux-Residual
  Residual-Control   Outer-Iter.   Inner-Iter.     Column Row Layer    Maximum-Head-Change  Column Row Layer    Maximum-Flux-Residual          L2-NORM 
          0                 1           2             3    8     1       0.9232687816E-02       6    8    1         0.3875554362E+00      0.1868157424E+01
          0                 2           2             4    8     1       0.1298253151E-02       5    8    1         0.6981420955E-01      0.2437898066E+00
          0                 3           2             4    8     1       0.3656924032E-03       4    8    1         0.1928519360E-01      0.4777239520E-01
          0                 4           1             4    7     1       0.1042284074E-03       4    7    1         0.5450882931E-02      0.1299286437E-01
          0                 5           1             4    7     1       0.2977618692E-04       4    7    1         0.1557996398E-02      0.3643875381E-02

    ------------------------------------------------
       NWT REQUIRED            5 OUTER ITERATIONS 
       AND A TOTAL OF          8 INNER ITERATIONS.
    ------------------------------------------------

 NO OUTPUT CONTROL FOR STRESS PERIOD   28   TIME STEP   25
 
 SOLVING FOR HEAD 
                                                   Max.-Head-Change                         Max.-Flux-Residual
  Residual-Control   Outer-Iter.   Inner-Iter.     Column Row Layer    Maximum-Head-Change  Column Row Layer    Maximum-Flux-Residual          L2-NORM 
          0                 1           2             3    8     1       0.9182655384E-02       6    8    1         0.3862917547E+00      0.1864388960E+01
          0                 2           2             4    8     1       0.1299404523E-02       5    8    1         0.6980020801E-01      0.2436322759E+00
          0                 3           2             4    8     1       0.3660228345E-03       4    8    1         0.1930257327E-01      0.4782636281E-01
          0                 4           1             4    7     1       0.1045104409E-03       4    7    1         0.5465906178E-02      0.1301083017E-01
          0                 5           1             4    7     1       0.2985480432E-04       4    7    1         0.1562184391E-02      0.3648998190E-02

    ------------------------------------------------
       NWT REQUIRED            5 OUTER ITERATIONS 
       AND A TOTAL OF          8 INNER ITERATIONS.
    ------------------------------------------------

 NO OUTPUT CONTROL FOR STRESS PERIOD   28   TIME STEP   26
 
 SOLVING FOR HEAD 
                                                   Max.-Head-Change                         Max.-Flux-Residual
  Residual-Control   Outer-Iter.   Inner-Iter.     Column Row Layer    Maximum-Head-Change  Column Row Layer    Maximum-Flux-Residual          L2-NORM 
          0                 1           2             3    8     1       0.9133413511E-02       6    8    1         0.3850489460E+00      0.1860695123E+01
          0                 2           2             4    8     1       0.1300432977E-02       5    8    1         0.6978216213E-01      0.2434713376E+00
          0                 3           2             4    7     1       0.3664894947E-03       4    8    1         0.1931811717E-01      0.4787612776E-01
          0                 4           1             4    7     1       0.1047758646E-03       4    7    1         0.5480047906E-02      0.1302751233E-01
          0                 5           1             4    7     1       0.2992876841E-04       4    7    1         0.1566125422E-02      0.3653757445E-02

    ------------------------------------------------
       NWT REQUIRED            5 OUTER ITERATIONS 
       AND A TOTAL OF          8 INNER ITERATIONS.
    ------------------------------------------------

 NO OUTPUT CONTROL FOR STRESS PERIOD   28   TIME STEP   27
 
 SOLVING FOR HEAD 
                                                   Max.-Head-Change                         Max.-Flux-Residual
  Residual-Control   Outer-Iter.   Inner-Iter.     Column Row Layer    Maximum-Head-Change  Column Row Layer    Maximum-Flux-Residual          L2-NORM 
          0                 1           2             3    8     1       0.9084943993E-02       6    8    1         0.3838335119E+00      0.1857070131E+01
          0                 2           2             4    8     1       0.1301342245E-02       5    8    1         0.6976024104E-01      0.2433061810E+00
          0                 3           2             4    7     1       0.3673847664E-03       4    8    1         0.1933188158E-01      0.4792158035E-01
          0                 4           1             4    7     1       0.1050251432E-03       4    7    1         0.5493334852E-02      0.1304287935E-01
          0                 5           1             4    7     1       0.2999819411E-04       4    7    1         0.1569826163E-02      0.3658142810E-02

    ------------------------------------------------
       NWT REQUIRED            5 OUTER ITERATIONS 
       AND A TOTAL OF          8 INNER ITERATIONS.
    ------------------------------------------------

 NO OUTPUT CONTROL FOR STRESS PERIOD   28   TIME STEP   28
 
 SOLVING FOR HEAD 
                                                   Max.-Head-Change                         Max.-Flux-Residual
  Residual-Control   Outer-Iter.   Inner-Iter.     Column Row Layer    Maximum-Head-Change  Column Row Layer    Maximum-Flux-Residual          L2-NORM 
          0                 1           2             3    8     1       0.9037434988E-02       6    8    1         0.3826442516E+00      0.1853519820E+01
          0                 2           2             4    8     1       0.1302138341E-02       5    8    1         0.6973468785E-01      0.2431376339E+00
          0                 3           2             4    7     1       0.3682351392E-03       4    8    1         0.1934395772E-01      0.4796292081E-01
          0                 4           1             4    7     1       0.1052617426E-03       4    7    1         0.5505952834E-02      0.1305699712E-01
          0                 5           1             4    7     1       0.3006403997E-04       4    7    1         0.1573337987E-02      0.3662176868E-02

    ------------------------------------------------
       NWT REQUIRED            5 OUTER ITERATIONS 
       AND A TOTAL OF          8 INNER ITERATIONS.
    ------------------------------------------------

 NO OUTPUT CONTROL FOR STRESS PERIOD   28   TIME STEP   29
 
 SOLVING FOR HEAD 
                                                   Max.-Head-Change                         Max.-Flux-Residual
  Residual-Control   Outer-Iter.   Inner-Iter.     Column Row Layer    Maximum-Head-Change  Column Row Layer    Maximum-Flux-Residual          L2-NORM 
          0                 1           2             3    8     1       0.8990653866E-02       6    8    1         0.3814726786E+00      0.1850026956E+01
          0                 2           2             4    8     1       0.1302822781E-02       5    8    1         0.6970351544E-01      0.2429633306E+00
          0                 3           2             4    7     1       0.3690311151E-03       4    8    1         0.1935436393E-01      0.4799963242E-01
          0                 4           1             4    7     1       0.1054829998E-03       4    7    1         0.5517760569E-02      0.1306970706E-01
          0                 5           1             4    7     1       0.3012555878E-04       4    7    1         0.1576621271E-02      0.3665812074E-02

    ------------------------------------------------
       NWT REQUIRED            5 OUTER ITERATIONS 
       AND A TOTAL OF          8 INNER ITERATIONS.
    ------------------------------------------------

 NO OUTPUT CONTROL FOR STRESS PERIOD   28   TIME STEP   30



 STREAM LISTING     PERIOD     28   STEP       30

 LAYER ROW COL. STREAM  RCH.  FLOW INTO     FLOW TO   FLOW OUT OF   OVRLND.     DIRECT     STREAM       STREAM     STREAM     STREAM   STREAMBED  STREAMBED
                SEG.NO.  NO.  STRM. RCH.    AQUIFER    STRM. RCH.    RUNOFF     PRECIP       ET          HEAD       DEPTH      WIDTH   CONDCTNC.   GRADIENT

   1    1    1     1     1    2.8874E+01  2.6239E-01   2.8612E+01  0.000E+00  0.000E+00  0.000E+00  1.09428E+03  1.233E+00  1.377E+01  6.198E-02  1.411E+00
   1    2    2     1     2    2.8612E+01  4.0592E-01   2.8206E+01  0.000E+00  0.000E+00  0.000E+00  1.08929E+03  1.229E+00  1.371E+01  9.599E-02  1.410E+00
   1    3    3     1     3    2.8206E+01  3.4575E-01   2.7860E+01  0.000E+00  0.000E+00  0.000E+00  1.08364E+03  1.224E+00  1.364E+01  8.186E-02  1.408E+00
   1    3    4     1     4    2.7860E+01  3.1803E-01   2.7542E+01  0.000E+00  0.000E+00  0.000E+00  1.07863E+03  1.219E+00  1.358E+01  7.538E-02  1.406E+00
   1    4    5     2     1    2.5542E+01  3.2904E-01   2.5213E+01  0.000E+00  0.000E+00  0.000E+00  1.07315E+03  1.218E+00  1.200E+01  7.800E-02  1.406E+00
   1    5    6     2     2    2.5213E+01  2.5260E-01   2.4960E+01  0.000E+00  0.000E+00  0.000E+00  1.06772E+03  1.210E+00  1.200E+01  6.000E-02  1.403E+00
   1    6    6     2     3    2.4960E+01  2.5217E-01   2.4708E+01  0.000E+00  0.000E+00  0.000E+00  1.06300E+03  1.203E+00  1.200E+01  6.000E-02  1.401E+00
   1    7    6     2     4    2.4708E+01  2.5172E-01   2.4457E+01  0.000E+00  0.000E+00  0.000E+00  1.05827E+03  1.195E+00  1.200E+01  6.000E-02  1.398E+00
   1    8    6     2     5    2.4457E+01  2.5128E-01   2.4205E+01  0.000E+00  0.000E+00  0.000E+00  1.05355E+03  1.188E+00  1.200E+01  6.000E-02  1.396E+00
   1    3    5     3     1    2.0000E+00  2.8252E-01   1.7175E+00  0.000E+00  0.000E+00  0.000E+00  1.07555E+03  1.909E+00  9.636E+00  7.227E-02  1.955E+00
   1    3    6     3     2    1.7175E+00  2.4905E-01   1.4684E+00  0.000E+00  0.000E+00  0.000E+00  1.07264E+03  1.727E+00  8.909E+00  6.682E-02  1.864E+00
   1    3    7     3     3    1.4684E+00  1.9718E-01   1.2712E+00  0.000E+00  0.000E+00  0.000E+00  1.06987E+03  1.555E+00  8.218E+00  5.547E-02  1.777E+00
   1    4    8     3     4    1.2712E+00  2.2567E-01   1.0456E+00  0.000E+00  0.000E+00  0.000E+00  1.06682E+03  1.364E+00  7.455E+00  6.709E-02  1.682E+00
   1    5    8     3     5    1.0456E+00  1.5790E-01   8.8768E-01  0.000E+00  0.000E+00  0.000E+00  1.06362E+03  1.164E+00  6.655E+00  4.991E-02  1.582E+00
   1    6    8     3     6    8.8768E-01  5.5980E-02   8.3170E-01  0.000E+00  0.000E+00  0.000E+00  1.06158E+03  1.036E+00  6.145E+00  1.844E-02  1.518E+00
   1    5   10     4     1    1.0000E+01  9.0919E-02   9.9091E+00  0.000E+00  0.000E+00  0.000E+00  1.07836E+03  6.368E-01  1.000E+01  2.500E-02  1.212E+00
   1    5    9     4     2    9.9091E+00  1.8158E-01   9.7275E+00  0.000E+00  0.000E+00  0.000E+00  1.07154E+03  6.315E-01  1.000E+01  5.000E-02  1.211E+00
   1    6    8     4     3    9.7275E+00  1.2689E-01   9.6006E+00  0.000E+00  0.000E+00  0.000E+00  1.06381E+03  6.256E-01  1.000E+01  3.500E-02  1.209E+00
   1    6    8     5     1    1.0432E+01  2.2686E-01   1.0205E+01  0.000E+00  0.000E+00  0.000E+00  1.05868E+03  6.790E-01  1.542E+01  6.166E-02  1.226E+00
   1    7    7     5     2    1.0205E+01  2.7894E-01   9.9265E+00  0.000E+00  0.000E+00  0.000E+00  1.05417E+03  6.732E-01  1.519E+01  7.594E-02  1.224E+00
   1    8    7     5     3    9.9265E+00  1.9221E-01   9.7343E+00  0.000E+00  0.000E+00  0.000E+00  1.04992E+03  6.676E-01  1.497E+01  5.241E-02  1.223E+00
   1    8    6     5     4    9.7343E+00  1.3577E-01   9.5985E+00  0.000E+00  0.000E+00  0.000E+00  1.04691E+03  6.637E-01  1.482E+01  3.706E-02  1.221E+00
   1    9    6     6     1    3.3804E+01  2.6759E-01   3.3536E+01  0.000E+00  0.000E+00  0.000E+00  1.04419E+03  1.460E+00  1.200E+01  6.000E-02  1.487E+00
   1   10    7     6     2    3.3536E+01  2.6717E-01   3.3269E+01  0.000E+00  0.000E+00  0.000E+00  1.03963E+03  1.453E+00  1.200E+01  6.000E-02  1.484E+00
   1   11    7     6     3    3.3269E+01  2.6676E-01   3.3002E+01  0.000E+00  0.000E+00  0.000E+00  1.03508E+03  1.446E+00  1.200E+01  6.000E-02  1.482E+00
   1   12    7     6     4    3.3002E+01  2.6634E-01   3.2736E+01  0.000E+00  0.000E+00  0.000E+00  1.03053E+03  1.439E+00  1.200E+01  6.000E-02  1.480E+00
   1   13    7     6     5    3.2736E+01  2.4217E-02   3.2712E+01  0.000E+00  0.000E+00  0.000E+00  1.02734E+03  1.435E+00  1.200E+01  2.400E-02  3.363E-01
   1   14    9     7     1    1.5000E+02  1.4027E+00   1.4860E+02  0.000E+00  0.000E+00  0.000E+00  1.03987E+03  2.288E+00  5.529E+01  5.593E-01  8.360E-01
   1   13    8     7     2    1.4860E+02  2.0689E+00   1.4653E+02  0.000E+00  0.000E+00  0.000E+00  1.03478E+03  2.278E+00  5.525E+01  6.147E-01  1.122E+00
   1   13    7     7     3    1.4653E+02  1.8715E+00   1.4466E+02  0.000E+00  0.000E+00  0.000E+00  1.02969E+03  2.268E+00  5.521E+01  5.583E-01  1.117E+00
   1   13    6     8     1    1.7737E+02  1.3382E+00   1.7603E+02  0.000E+00  0.000E+00  0.000E+00  1.02487E+03  2.995E+00  4.343E+01  4.426E-01  1.008E+00
   1   13    5     8     2    1.7603E+02  5.3630E-01   1.7549E+02  0.000E+00  0.000E+00  0.000E+00  1.01861E+03  2.989E+00  4.335E+01  4.417E-01  4.047E-01
   1   13    4     8     3    1.7549E+02 -1.2884E+00   1.7678E+02  0.000E+00  0.000E+00  0.000E+00  1.01237E+03  2.992E+00  4.338E+01  4.421E+00 -9.715E-02
   1   13    3     8     4    1.7678E+02 -3.0650E+00   1.7985E+02  0.000E+00  0.000E+00  0.000E+00  1.00613E+03  3.006E+00  4.358E+01  4.441E+00 -2.301E-01
   1   13    2     8     5    1.7985E+02 -2.3958E+00   1.8224E+02  0.000E+00  0.000E+00  0.000E+00  9.99898E+02  3.023E+00  4.383E+01  4.466E+00 -1.788E-01
   1   13    1     8     6    1.8224E+02 -1.9006E+00   1.8414E+02  0.000E+00  0.000E+00  0.000E+00  9.94911E+02  3.036E+00  4.402E+01  2.692E+00 -2.354E-01
   1    8    6     9     1    0.0000E+00  0.0000E+00   0.0000E+00  0.000E+00  0.000E+00  0.000E+00  1.07875E+03  0.000E+00  4.000E+00  0.000E+00  1.000E+00
   1    8    5     9     2    0.0000E+00  0.0000E+00   0.0000E+00  0.000E+00  0.000E+00  0.000E+00  1.07825E+03  0.000E+00  4.000E+00  0.000E+00  1.000E+00





UNSATURATED ZONE PACKAGE VOLUMETRIC BUDGET FOR  TIME STEP    30 STRESS PERIOD   28
  ------------------------------------------------------------------------------



     CUMULATIVE VOLUMES      L**3       RATES FOR THIS TIME STEP      L**3/T
     ------------------                 ------------------------

           IN:                                      IN:
           ---                                      ---
        INFILTRATION =  6669751075.0309          INFILTRATION =           0.8475

          OUT:                                     OUT:
          ----                                     ----
              UZF ET =   868514628.7992                UZF ET =           0.7500
        UZF RECHARGE =  5394332987.0435          UZF RECHARGE =           7.0374

            IN - OUT =   406903459.1882              IN - OUT =          -6.9399

          STORAGE:                                 STORAGE:
          --------                                 --------
      STORAGE CHANGE =   407615391.2447        STORAGE CHANGE =          -6.9399

 PERCENT DISCREPANCY IS DIFFERENCE BETWEEN IN-OUT MINUS CHANGE IN STORAGE
 DIVIDED BY THE AVERAGE OF IN AND OUT TIMES 100

 PERCENT DISCREPANCY =          -0.00     PERCENT DISCREPANCY =           0.00






1
  VOLUMETRIC BUDGET FOR AGRICULTURAL FIELDS AT  END OF TIME STEP   30, STRESS PERIOD  28
  ------------------------------------------------------------------------------

     CUMULATIVE VOLUMES      L**3       RATES FOR THIS TIME STEP      L**3/T
     ------------------                 ------------------------

           IN:                                      IN:
           ---                                      ---
               AG WELLS  =  6318206976.0000                 AG WELLS  =           0.0000
      DIVERSION SEGMENTS =   291316640.0000        DIVERSION SEGMENTS =           0.0000
           GW IRRIGATION =           0.0000             GW IRRIGATION =           0.0000
           SW IRRIGATION =           0.0000             SW IRRIGATION =           0.0000
        SYSTEM LOSSES GW =           0.0000          SYSTEM LOSSES GW =           0.0000
        SYSTEM LOSSES SW =           0.0000          SYSTEM LOSSES SW =           0.0000

                TOTAL IN =  6609523712.0000                  TOTAL IN =           0.0000

          OUT:                                     OUT:
          ----                                     ----
               AG WELLS  =           0.0000                 AG WELLS  =           0.0000
      DIVERSION SEGMENTS =           0.0000        DIVERSION SEGMENTS =           0.0000
           GW IRRIGATION =  6318206976.0000             GW IRRIGATION =           0.0000
           SW IRRIGATION =   291322048.0000             SW IRRIGATION =           0.0000
        SYSTEM LOSSES GW =           0.0000          SYSTEM LOSSES GW =           0.0000
        SYSTEM LOSSES SW =           0.0000          SYSTEM LOSSES SW =           0.0000

               TOTAL OUT =  6609528832.0000                 TOTAL OUT =           0.0000

                IN - OUT =       -5120.0000                  IN - OUT =           0.0000

     PERCENT DISCREPANCY =          -0.00         PERCENT DISCREPANCY =           0.00



1
  VOLUMETRIC BUDGET FOR ENTIRE MODEL AT END OF TIME STEP   30, STRESS PERIOD  28
  ------------------------------------------------------------------------------

     CUMULATIVE VOLUMES      L**3       RATES FOR THIS TIME STEP      L**3/T
     ------------------                 ------------------------

           IN:                                      IN:
           ---                                      ---
             STORAGE     =  5820243968.0000               STORAGE     =           1.7409
       CONSTANT HEAD     =           0.0000         CONSTANT HEAD     =           0.0000
     HEAD DEP BOUNDS     =    20520140.0000       HEAD DEP BOUNDS     =           0.2903
      STREAM LEAKAGE     =   860979840.0000        STREAM LEAKAGE     =          13.3800
        UZF RECHARGE     =  5394331648.0000          UZF RECHARGE     =           7.0374
               GW ET     =           0.0000                 GW ET     =           0.0000
     SURFACE LEAKAGE     =           0.0000       SURFACE LEAKAGE     =           0.0000
           AG WELLS      =           0.0000             AG WELLS      =           0.0000

                TOTAL IN = 12096075776.0000                  TOTAL IN =          22.4486

          OUT:                                     OUT:
          ----                                     ----
             STORAGE     =  5076880384.0000               STORAGE     =          13.5068
       CONSTANT HEAD     =           0.0000         CONSTANT HEAD     =           0.0000
     HEAD DEP BOUNDS     =    20464148.0000       HEAD DEP BOUNDS     =           0.2895
      STREAM LEAKAGE     =   680417408.0000        STREAM LEAKAGE     =           8.6498
        UZF RECHARGE     =           0.0000          UZF RECHARGE     =           0.0000
               GW ET     =           0.0000                 GW ET     =           0.0000
     SURFACE LEAKAGE     =           0.0000       SURFACE LEAKAGE     =           0.0000
           AG WELLS      =  6318206976.0000             AG WELLS      =           0.0000

               TOTAL OUT = 12095969280.0000                 TOTAL OUT =          22.4461

                IN - OUT =      106496.0000                  IN - OUT =       2.5444E-03

     PERCENT DISCREPANCY =           0.00         PERCENT DISCREPANCY =           0.01






         TIME SUMMARY AT END OF TIME STEP   30 IN STRESS PERIOD   28
                    SECONDS     MINUTES      HOURS       DAYS        YEARS
                    -----------------------------------------------------------
   TIME STEP LENGTH  87667.      1461.1      24.352      1.0147     2.77799E-03
 STRESS PERIOD TIME 2.63000E+06  43833.      730.56      30.440     8.33397E-02
         TOTAL TIME 7.10967E+07 1.18494E+06  19749.      822.88      2.2529    
1
1
                            STRESS PERIOD NO.   29, LENGTH =   2630000.    
                            -----------------------------------------------

                              NUMBER OF TIME STEPS =    30

                               MULTIPLIER FOR DELT =     1.000

                            INITIAL TIME STEP SIZE =   87666.66    

 REUSING NON-PARAMETER GHB CELLS FROM LAST STRESS PERIOD

      2 GHB CELLS

 REUSING STREAM SEGMENT DATA FROM LAST STRESS PERIOD



            AREAL INFILTRATION RATE
 READING ON UNIT   19 WITH FORMAT: (FREE)              

            1           2           3           4           5           6           7           8           9          10
 ........................................................................................................................
   1   1.0000E-10  2.0000E-10   0.000       0.000       0.000       0.000       0.000       0.000       0.000       0.000    
   2   2.0000E-10  1.0000E-10  2.0000E-10   0.000       0.000      8.0000E-10  8.0000E-10  5.0000E-10   0.000       0.000    
   3    0.000      5.0000E-10  1.0000E-10  1.0000E-10  8.0000E-10  8.0000E-10  5.0000E-10  5.0000E-10   0.000       0.000    
   4   8.0000E-10  5.0000E-10  1.0000E-10  1.0000E-10  1.0000E-10  1.0000E-10  1.0000E-10  1.0000E-10  2.0000E-10   0.000    
   5   8.0000E-10  5.0000E-10  1.0000E-10  1.0000E-10  1.0000E-10  1.0000E-10  1.0000E-10  1.0000E-10  1.0000E-10  1.0000E-10
   6   8.0000E-10  5.0000E-10  5.0000E-10  2.0000E-10  2.0000E-10  1.0000E-10  1.0000E-10  1.0000E-10  1.0000E-10  5.0000E-10
   7   8.0000E-10  5.0000E-10  5.0000E-10  2.0000E-10  2.0000E-10  1.0000E-10  1.0000E-10  2.0000E-10  2.0000E-10   0.000    
   8    0.000      5.0000E-10  5.0000E-10  2.0000E-10  2.0000E-10  1.0000E-10  1.0000E-10  2.0000E-10  5.0000E-10   0.000    
   9    0.000      5.0000E-10  5.0000E-10  2.0000E-10  2.0000E-10  1.0000E-10  1.0000E-10  2.0000E-10  5.0000E-10   0.000    
  10    0.000      5.0000E-10  5.0000E-10  2.0000E-10  2.0000E-10  1.0000E-10  1.0000E-10  2.0000E-10  5.0000E-10  8.0000E-10
  11    0.000      1.0000E-10  1.0000E-10  1.0000E-10  1.0000E-10  1.0000E-10  1.0000E-10  2.0000E-10  5.0000E-10   0.000    
  12   1.0000E-10  1.0000E-10  1.0000E-10  1.0000E-10  1.0000E-10  1.0000E-10  1.0000E-10  1.0000E-10  2.0000E-10   0.000    
  13   1.0000E-10  1.0000E-10  2.0000E-10  2.0000E-10  2.0000E-10  2.0000E-10  2.0000E-10  1.0000E-10  1.0000E-10   0.000    
  14    0.000      2.0000E-10  5.0000E-10  5.0000E-10  5.0000E-10  5.0000E-10  5.0000E-10  2.0000E-10  1.0000E-10   0.000    
  15    0.000       0.000      8.0000E-10  8.0000E-10  8.0000E-10  8.0000E-10   0.000       0.000       0.000       0.000    

                  ET RATE =  2.500000E-08

 USING ET EXTINCTION DEPTH FROM PREVIOUS STRESS PERIOD. CURRENT PERIOD IS:      29

 USING EXTINCTION WATER CONTENT FROM PREVIOUS STRESS PERIOD. CURRENT PERIOD IS:      29

 USING AIR ENTRY PRESSURE FROM PREVIOUS STRESS PERIOD. CURRENT PERIOD IS:      29

 USING ROOT PRESSURE HEAD FROM PREVIOUS STRESS PERIOD. CURRENT PERIOD IS:      29

 USING ROOT ACTIVITY FROM PREVIOUS STRESS PERIOD. CURRENT PERIOD IS:      29

 PROCESSING AG STRESS PERIOD DATA

 READING AG STRESS PERIOD DATA

 READING IRRIGATION SEGMENT

 READING IRRIGATION WELL

 READING SUPPLEMENTAL WELL

 END PROCESSING AG STRESS PERIOD DATA OPTIONS
 
 SOLVING FOR HEAD 
                                                   Max.-Head-Change                         Max.-Flux-Residual
  Residual-Control   Outer-Iter.   Inner-Iter.     Column Row Layer    Maximum-Head-Change  Column Row Layer    Maximum-Flux-Residual          L2-NORM 
          0                 1           2             3    8     1       0.8944582770E-02       6    8    1         0.3803253805E+00      0.1846589694E+01
          0                 2           2             4    8     1       0.1303433640E-02       5    8    1         0.6967131787E-01      0.2427862428E+00
          0                 3           2             4    7     1       0.3697766659E-03       4    8    1         0.1936366839E-01      0.4803316422E-01
          0                 4           1             4    7     1       0.1056902288E-03       4    7    1         0.5528820040E-02      0.1308145142E-01
          0                 5           1             4    7     1       0.3018317323E-04       4    7    1         0.1579696362E-02      0.3669174834E-02

    ------------------------------------------------
       NWT REQUIRED            5 OUTER ITERATIONS 
       AND A TOTAL OF          8 INNER ITERATIONS.
    ------------------------------------------------

 NO OUTPUT CONTROL FOR STRESS PERIOD   29   TIME STEP    1
 
 SOLVING FOR HEAD 
                                                   Max.-Head-Change                         Max.-Flux-Residual
  Residual-Control   Outer-Iter.   Inner-Iter.     Column Row Layer    Maximum-Head-Change  Column Row Layer    Maximum-Flux-Residual          L2-NORM 
          0                 1           2             3    8     1       0.8899203637E-02       5    5    1         0.3619188198E+00      0.1853065766E+01
          0                 2           2             4    8     1       0.1303821960E-02       4    8    1         0.6957392356E-01      0.2429189113E+00
          0                 3           2             4    7     1       0.3704442663E-03       4    8    1         0.1936947742E-01      0.4802520703E-01
          0                 4           1             4    7     1       0.1058716682E-03       4    7    1         0.5538664589E-02      0.1307935278E-01
          0                 5           1             4    7     1       0.3023247525E-04       4    7    1         0.1582372566E-02      0.3668751670E-02

    ------------------------------------------------
       NWT REQUIRED            5 OUTER ITERATIONS 
       AND A TOTAL OF          8 INNER ITERATIONS.
    ------------------------------------------------

 NO OUTPUT CONTROL FOR STRESS PERIOD   29   TIME STEP    2
 
 SOLVING FOR HEAD 
                                                   Max.-Head-Change                         Max.-Flux-Residual
  Residual-Control   Outer-Iter.   Inner-Iter.     Column Row Layer    Maximum-Head-Change  Column Row Layer    Maximum-Flux-Residual          L2-NORM 
          0                 1           2             3    8     1       0.8854703007E-02       4   13    1        -0.3625464496E+00      0.1863161976E+01
          0                 2           2             4    8     1       0.1304042941E-02       4    8    1         0.6958510411E-01      0.2435237548E+00
          0                 3           2             4    7     1       0.3710306959E-03       4    7    1         0.1938142938E-01      0.4801865190E-01
          0                 4           1             4    7     1       0.1060296635E-03       4    7    1         0.5547292316E-02      0.1307355457E-01
          0                 5           1             4    7     1       0.3027501326E-04       4    7    1         0.1584697406E-02      0.3667219801E-02

    ------------------------------------------------
       NWT REQUIRED            5 OUTER ITERATIONS 
       AND A TOTAL OF          8 INNER ITERATIONS.
    ------------------------------------------------

 NO OUTPUT CONTROL FOR STRESS PERIOD   29   TIME STEP    3
 
 SOLVING FOR HEAD 
                                                   Max.-Head-Change                         Max.-Flux-Residual
  Residual-Control   Outer-Iter.   Inner-Iter.     Column Row Layer    Maximum-Head-Change  Column Row Layer    Maximum-Flux-Residual          L2-NORM 
          0                 1           2             3    8     1       0.8810849342E-02       5    5    1         0.3591902370E+00      0.1845110739E+01
          0                 2           2             4    8     1       0.1304149093E-02       4    8    1         0.6959005826E-01      0.2421484949E+00
          0                 3           2             4    7     1       0.3715672446E-03       4    7    1         0.1941083560E-01      0.4796654782E-01
          0                 4           1             4    7     1       0.1061739298E-03       4    7    1         0.5555181845E-02      0.1306742416E-01
          0                 5           1             4    7     1       0.3031377422E-04       4    7    1         0.1586819088E-02      0.3665637292E-02

    ------------------------------------------------
       NWT REQUIRED            5 OUTER ITERATIONS 
       AND A TOTAL OF          8 INNER ITERATIONS.
    ------------------------------------------------

 NO OUTPUT CONTROL FOR STRESS PERIOD   29   TIME STEP    4
 
 SOLVING FOR HEAD 
                                                   Max.-Head-Change                         Max.-Flux-Residual
  Residual-Control   Outer-Iter.   Inner-Iter.     Column Row Layer    Maximum-Head-Change  Column Row Layer    Maximum-Flux-Residual          L2-NORM 
          0                 1           2             3    8     1       0.8767832547E-02       5    5    1         0.3578243641E+00      0.1829318218E+01
          0                 2           2             4    8     1       0.1304084846E-02       4    8    1         0.6958577615E-01      0.2409396423E+00
          0                 3           2             4    7     1       0.3720460879E-03       4    7    1         0.1943714332E-01      0.4791742734E-01
          0                 4           1             4    7     1       0.1063022760E-03       4    7    1         0.5562216821E-02      0.1306103487E-01
          0                 5           1             4    7     1       0.3034814285E-04       4    7    1         0.1588704992E-02      0.3663974772E-02

    ------------------------------------------------
       NWT REQUIRED            5 OUTER ITERATIONS 
       AND A TOTAL OF          8 INNER ITERATIONS.
    ------------------------------------------------

 NO OUTPUT CONTROL FOR STRESS PERIOD   29   TIME STEP    5
 
 SOLVING FOR HEAD 
                                                   Max.-Head-Change                         Max.-Flux-Residual
  Residual-Control   Outer-Iter.   Inner-Iter.     Column Row Layer    Maximum-Head-Change  Column Row Layer    Maximum-Flux-Residual          L2-NORM 
          0                 1           2             3    8     1       0.8724069445E-02       5    5    1         0.3565278880E+00      0.1833539743E+01
          0                 2           2             4    7     1       0.1298184054E-02       4    7    1         0.6819246664E-01      0.2364219214E+00
          0                 3           2             4    7     1       0.3699449120E-03       4    7    1         0.1938118073E-01      0.4434472309E-01
          0                 4           1             4    7     1       0.1052568145E-03       4    7    1         0.5525421160E-02      0.1163046991E-01
          0                 5           1             4    7     1       0.2990886582E-04       4    7    1         0.1571289937E-02      0.3201301834E-02

    ------------------------------------------------
       NWT REQUIRED            5 OUTER ITERATIONS 
       AND A TOTAL OF          8 INNER ITERATIONS.
    ------------------------------------------------

 NO OUTPUT CONTROL FOR STRESS PERIOD   29   TIME STEP    6
 
 SOLVING FOR HEAD 
                                                   Max.-Head-Change                         Max.-Flux-Residual
  Residual-Control   Outer-Iter.   Inner-Iter.     Column Row Layer    Maximum-Head-Change  Column Row Layer    Maximum-Flux-Residual          L2-NORM 
          0                 1           2             5    8     1      -0.9500153105E-02       5    8    1        -0.5422429148E+00      0.1860981540E+01
          0                 2           2             5    8     1      -0.1822761697E-02       5    8    1        -0.1015633472E+00      0.2459920233E+00
          0                 3           2             4    7     1       0.3672437233E-03       5    8    1        -0.1970187212E-01      0.4589935597E-01
          0                 4           1             4    7     1       0.1042293580E-03       4    7    1         0.5481509338E-02      0.1165722316E-01
          0                 5           1             4    7     1       0.2954569871E-04       4    7    1         0.1554949788E-02      0.3145674396E-02

    ------------------------------------------------
       NWT REQUIRED            5 OUTER ITERATIONS 
       AND A TOTAL OF          8 INNER ITERATIONS.
    ------------------------------------------------

 NO OUTPUT CONTROL FOR STRESS PERIOD   29   TIME STEP    7
 
 SOLVING FOR HEAD 
                                                   Max.-Head-Change                         Max.-Flux-Residual
  Residual-Control   Outer-Iter.   Inner-Iter.     Column Row Layer    Maximum-Head-Change  Column Row Layer    Maximum-Flux-Residual          L2-NORM 
          0                 1           2             3    8     1       0.8627720564E-02       5    8    1        -0.4789269111E+00      0.1823505310E+01
          0                 2           2             5    8     1      -0.1603187323E-02       5    8    1        -0.8936905002E-01      0.2380249921E+00
          0                 3           2             4    7     1       0.3643617374E-03       4    7    1         0.1914249732E-01      0.4416665298E-01
          0                 4           1             4    7     1       0.1032916615E-03       4    7    1         0.5436644497E-02      0.1131143866E-01
          0                 5           1             4    7     1       0.2925087644E-04       4    7    1         0.1540516027E-02      0.3070897979E-02

    ------------------------------------------------
       NWT REQUIRED            5 OUTER ITERATIONS 
       AND A TOTAL OF          8 INNER ITERATIONS.
    ------------------------------------------------

 NO OUTPUT CONTROL FOR STRESS PERIOD   29   TIME STEP    8
 
 SOLVING FOR HEAD 
                                                   Max.-Head-Change                         Max.-Flux-Residual
  Residual-Control   Outer-Iter.   Inner-Iter.     Column Row Layer    Maximum-Head-Change  Column Row Layer    Maximum-Flux-Residual          L2-NORM 
          0                 1           2             3    8     1       0.8576046784E-02       5    8    1        -0.4217822431E+00      0.1791447216E+01
          0                 2           2             5    8     1      -0.1404692982E-02       5    8    1        -0.7835093526E-01      0.2312946012E+00
          0                 3           2             4    7     1       0.3611250977E-03       4    7    1         0.1898643809E-01      0.4270095098E-01
          0                 4           1             4    7     1       0.1022839371E-03       4    7    1         0.5386947981E-02      0.1101828183E-01
          0                 5           1             4    7     1       0.2894386951E-04       4    7    1         0.1525152495E-02      0.3007062398E-02

    ------------------------------------------------
       NWT REQUIRED            5 OUTER ITERATIONS 
       AND A TOTAL OF          8 INNER ITERATIONS.
    ------------------------------------------------

 NO OUTPUT CONTROL FOR STRESS PERIOD   29   TIME STEP    9
 
 SOLVING FOR HEAD 
                                                   Max.-Head-Change                         Max.-Flux-Residual
  Residual-Control   Outer-Iter.   Inner-Iter.     Column Row Layer    Maximum-Head-Change  Column Row Layer    Maximum-Flux-Residual          L2-NORM 
          0                 1           2             3    8     1       0.8523052751E-02       5    8    1        -0.3701483291E+00      0.1763916926E+01
          0                 2           2             4    6     1       0.1269225336E-02       5    8    1        -0.6838392539E-01      0.2256119774E+00
          0                 3           2             4    7     1       0.3576505472E-03       4    6    1         0.1883052484E-01      0.4146337874E-01
          0                 4           1             4    7     1       0.1012340695E-03       4    7    1         0.5334083522E-02      0.1076940680E-01
          0                 5           1             4    7     1       0.2863125847E-04       4    7    1         0.1509255424E-02      0.2952384885E-02

    ------------------------------------------------
       NWT REQUIRED            5 OUTER ITERATIONS 
       AND A TOTAL OF          8 INNER ITERATIONS.
    ------------------------------------------------

 NO OUTPUT CONTROL FOR STRESS PERIOD   29   TIME STEP   10
 
 SOLVING FOR HEAD 
                                                   Max.-Head-Change                         Max.-Flux-Residual
  Residual-Control   Outer-Iter.   Inner-Iter.     Column Row Layer    Maximum-Head-Change  Column Row Layer    Maximum-Flux-Residual          L2-NORM 
          0                 1           2             3    8     1       0.8469136415E-02       4    5    1         0.3509783153E+00      0.1740177725E+01
          0                 2           2             4    6     1       0.1267994699E-02       4    6    1         0.6794702166E-01      0.2208135798E+00
          0                 3           2             4    6     1       0.3556646321E-03       4    6    1         0.1881094211E-01      0.4056187708E-01
          0                 4           1             4    7     1       0.1002200391E-03       4    6    1         0.5292014338E-02      0.1060144009E-01
          0                 5           1             4    7     1       0.2834383011E-04       4    7    1         0.1494098028E-02      0.2918092181E-02

    ------------------------------------------------
       NWT REQUIRED            5 OUTER ITERATIONS 
       AND A TOTAL OF          8 INNER ITERATIONS.
    ------------------------------------------------

 NO OUTPUT CONTROL FOR STRESS PERIOD   29   TIME STEP   11
 
 SOLVING FOR HEAD 
                                                   Max.-Head-Change                         Max.-Flux-Residual
  Residual-Control   Outer-Iter.   Inner-Iter.     Column Row Layer    Maximum-Head-Change  Column Row Layer    Maximum-Flux-Residual          L2-NORM 
          0                 1           2             3    7     1       0.8421440380E-02       4    5    1         0.3505802285E+00      0.1719675034E+01
          0                 2           2             4    6     1       0.1266347165E-02       4    6    1         0.6787149380E-01      0.2169704029E+00
          0                 3           2             4    6     1       0.3551072714E-03       4    6    1         0.1878520963E-01      0.3965741382E-01
          0                 4           1             4    6     1       0.9956110825E-04       4    6    1         0.5283347965E-02      0.1041717851E-01

    ------------------------------------------------
       NWT REQUIRED            4 OUTER ITERATIONS 
       AND A TOTAL OF          7 INNER ITERATIONS.
    ------------------------------------------------

 NO OUTPUT CONTROL FOR STRESS PERIOD   29   TIME STEP   12
 
 SOLVING FOR HEAD 
                                                   Max.-Head-Change                         Max.-Flux-Residual
  Residual-Control   Outer-Iter.   Inner-Iter.     Column Row Layer    Maximum-Head-Change  Column Row Layer    Maximum-Flux-Residual          L2-NORM 
          0                 1           2             3    7     1       0.8383772556E-02       4    5    1         0.3501238324E+00      0.1702102835E+01
          0                 2           2             4    6     1       0.1264466354E-02       4    6    1         0.6778293700E-01      0.2136740258E+00
          0                 3           2             4    6     1       0.3544898438E-03       4    6    1         0.1875607099E-01      0.3895707121E-01
          0                 4           1             4    6     1       0.9936329455E-04       4    6    1         0.5273810560E-02      0.1027384431E-01

    ------------------------------------------------
       NWT REQUIRED            4 OUTER ITERATIONS 
       AND A TOTAL OF          7 INNER ITERATIONS.
    ------------------------------------------------

 NO OUTPUT CONTROL FOR STRESS PERIOD   29   TIME STEP   13
 
 SOLVING FOR HEAD 
                                                   Max.-Head-Change                         Max.-Flux-Residual
  Residual-Control   Outer-Iter.   Inner-Iter.     Column Row Layer    Maximum-Head-Change  Column Row Layer    Maximum-Flux-Residual          L2-NORM 
          0                 1           2             3    7     1       0.8345878461E-02       4    5    1         0.3496419458E+00      0.1686622307E+01
          0                 2           2             4    6     1       0.1262222634E-02       4    6    1         0.6767441093E-01      0.2108523995E+00
          0                 3           2             4    6     1       0.3537763435E-03       4    6    1         0.1872160606E-01      0.3836432147E-01
          0                 4           1             4    6     1       0.9914037296E-04       4    6    1         0.5262867498E-02      0.1015123381E-01

    ------------------------------------------------
       NWT REQUIRED            4 OUTER ITERATIONS 
       AND A TOTAL OF          7 INNER ITERATIONS.
    ------------------------------------------------

 NO OUTPUT CONTROL FOR STRESS PERIOD   29   TIME STEP   14
 
 SOLVING FOR HEAD 
                                                   Max.-Head-Change                         Max.-Flux-Residual
  Residual-Control   Outer-Iter.   Inner-Iter.     Column Row Layer    Maximum-Head-Change  Column Row Layer    Maximum-Flux-Residual          L2-NORM 
          0                 1           2             3    7     1       0.8308012989E-02       4    5    1         0.3491353050E+00      0.1672917862E+01
          0                 2           2             4    6     1       0.1259650219E-02       4    6    1         0.6754762810E-01      0.2084601781E+00
          0                 3           2             4    6     1       0.3529769577E-03       4    6    1         0.1868233411E-01      0.3786400968E-01
          0                 4           1             4    6     1       0.9889530303E-04       4    6    1         0.5250672356E-02      0.1004645224E-01

    ------------------------------------------------
       NWT REQUIRED            4 OUTER ITERATIONS 
       AND A TOTAL OF          7 INNER ITERATIONS.
    ------------------------------------------------

 NO OUTPUT CONTROL FOR STRESS PERIOD   29   TIME STEP   15
 
 SOLVING FOR HEAD 
                                                   Max.-Head-Change                         Max.-Flux-Residual
  Residual-Control   Outer-Iter.   Inner-Iter.     Column Row Layer    Maximum-Head-Change  Column Row Layer    Maximum-Flux-Residual          L2-NORM 
          0                 1           2             3    7     1       0.8269947443E-02       4    5    1         0.3486048048E+00      0.1660720653E+01
          0                 2           2             4    6     1       0.1256785430E-02       4    6    1         0.6740441788E-01      0.2064067403E+00
          0                 3           2             4    6     1       0.3521024126E-03       4    6    1         0.1863880507E-01      0.3744280145E-01
          0                 4           1             4    6     1       0.9863118964E-04       4    6    1         0.5237386558E-02      0.9957198736E-02

    ------------------------------------------------
       NWT REQUIRED            4 OUTER ITERATIONS 
       AND A TOTAL OF          7 INNER ITERATIONS.
    ------------------------------------------------

 NO OUTPUT CONTROL FOR STRESS PERIOD   29   TIME STEP   16
 
 SOLVING FOR HEAD 
                                                   Max.-Head-Change                         Max.-Flux-Residual
  Residual-Control   Outer-Iter.   Inner-Iter.     Column Row Layer    Maximum-Head-Change  Column Row Layer    Maximum-Flux-Residual          L2-NORM 
          0                 1           2             3    7     1       0.8231705643E-02       4    5    1         0.3480512589E+00      0.1649793028E+01
          0                 2           2             4    6     1       0.1253625826E-02       4    6    1         0.6724458660E-01      0.2046452966E+00
          0                 3           2             4    6     1       0.3511522946E-03       4    6    1         0.1859098890E-01      0.3708812371E-01
          0                 4           1             4    6     1       0.9834794226E-04       4    6    1         0.5223004773E-02      0.9881011069E-02

    ------------------------------------------------
       NWT REQUIRED            4 OUTER ITERATIONS 
       AND A TOTAL OF          7 INNER ITERATIONS.
    ------------------------------------------------

 NO OUTPUT CONTROL FOR STRESS PERIOD   29   TIME STEP   17
 
 SOLVING FOR HEAD 
                                                   Max.-Head-Change                         Max.-Flux-Residual
  Residual-Control   Outer-Iter.   Inner-Iter.     Column Row Layer    Maximum-Head-Change  Column Row Layer    Maximum-Flux-Residual          L2-NORM 
          0                 1           2             3    7     1       0.8193558177E-02       4    5    1         0.3474753710E+00      0.1639950132E+01
          0                 2           2             4    6     1       0.1250246763E-02       4    6    1         0.6707212214E-01      0.2031327235E+00
          0                 3           2             4    6     1       0.3501477112E-03       4    6    1         0.1854000726E-01      0.3679131436E-01
          0                 4           1             4    6     1       0.9805144225E-04       4    6    1         0.5207840731E-02      0.9816424946E-02

    ------------------------------------------------
       NWT REQUIRED            4 OUTER ITERATIONS 
       AND A TOTAL OF          7 INNER ITERATIONS.
    ------------------------------------------------

 NO OUTPUT CONTROL FOR STRESS PERIOD   29   TIME STEP   18
 
 SOLVING FOR HEAD 
                                                   Max.-Head-Change                         Max.-Flux-Residual
  Residual-Control   Outer-Iter.   Inner-Iter.     Column Row Layer    Maximum-Head-Change  Column Row Layer    Maximum-Flux-Residual          L2-NORM 
          0                 1           2             3    7     1       0.8155529344E-02       4    5    1         0.3468708848E+00      0.1631031376E+01
          0                 2           2             4    6     1       0.1246677710E-02       4    6    1         0.6688867997E-01      0.2018291347E+00
          0                 3           2             4    6     1       0.3490961852E-03       4    6    1         0.1848628907E-01      0.3654280099E-01
          0                 4           1             4    6     1       0.9774357394E-04       4    6    1         0.5192003328E-02      0.9761570888E-02

    ------------------------------------------------
       NWT REQUIRED            4 OUTER ITERATIONS 
       AND A TOTAL OF          7 INNER ITERATIONS.
    ------------------------------------------------

 NO OUTPUT CONTROL FOR STRESS PERIOD   29   TIME STEP   19
 
 SOLVING FOR HEAD 
                                                   Max.-Head-Change                         Max.-Flux-Residual
  Residual-Control   Outer-Iter.   Inner-Iter.     Column Row Layer    Maximum-Head-Change  Column Row Layer    Maximum-Flux-Residual          L2-NORM 
          0                 1           2             3    7     1       0.8117160538E-02       4    5    1         0.3462464507E+00      0.1622908079E+01
          0                 2           2             4    6     1       0.1242951232E-02       4    6    1         0.6669596060E-01      0.2007048847E+00
          0                 3           2             4    6     1       0.3480070513E-03       4    6    1         0.1843032173E-01      0.3633659300E-01
          0                 4           1             4    6     1       0.9742698700E-04       4    6    1         0.5175632111E-02      0.9715427044E-02

    ------------------------------------------------
       NWT REQUIRED            4 OUTER ITERATIONS 
       AND A TOTAL OF          7 INNER ITERATIONS.
    ------------------------------------------------

 NO OUTPUT CONTROL FOR STRESS PERIOD   29   TIME STEP   20
 
 SOLVING FOR HEAD 
                                                   Max.-Head-Change                         Max.-Flux-Residual
  Residual-Control   Outer-Iter.   Inner-Iter.     Column Row Layer    Maximum-Head-Change  Column Row Layer    Maximum-Flux-Residual          L2-NORM 
          0                 1           2             3    7     1       0.8079218754E-02       4    5    1         0.3456030385E+00      0.1615457416E+01
          0                 2           2             4    6     1       0.1239060078E-02       4    6    1         0.6649355824E-01      0.1997302728E+00
          0                 3           2             4    6     1       0.3468783127E-03       4    6    1         0.1837199938E-01      0.3616574773E-01
          0                 4           1             4    6     1       0.9710110419E-04       4    6    1         0.5158697402E-02      0.9676628133E-02

    ------------------------------------------------
       NWT REQUIRED            4 OUTER ITERATIONS 
       AND A TOTAL OF          7 INNER ITERATIONS.
    ------------------------------------------------

 NO OUTPUT CONTROL FOR STRESS PERIOD   29   TIME STEP   21
 
 SOLVING FOR HEAD 
                                                   Max.-Head-Change                         Max.-Flux-Residual
  Residual-Control   Outer-Iter.   Inner-Iter.     Column Row Layer    Maximum-Head-Change  Column Row Layer    Maximum-Flux-Residual          L2-NORM 
          0                 1           2             3    7     1       0.8040994835E-02       4    5    1         0.3449416447E+00      0.1608594242E+01
          0                 2           2             4    6     1       0.1235106892E-02       4    6    1         0.6628707152E-01      0.1988843393E+00
          0                 3           2             4    6     1       0.3457376449E-03       4    6    1         0.1831283317E-01      0.3602561436E-01
          0                 4           1             4    6     1       0.9677337619E-04       4    6    1         0.5141606490E-02      0.9644318510E-02

    ------------------------------------------------
       NWT REQUIRED            4 OUTER ITERATIONS 
       AND A TOTAL OF          7 INNER ITERATIONS.
    ------------------------------------------------

 NO OUTPUT CONTROL FOR STRESS PERIOD   29   TIME STEP   22
 
 SOLVING FOR HEAD 
                                                   Max.-Head-Change                         Max.-Flux-Residual
  Residual-Control   Outer-Iter.   Inner-Iter.     Column Row Layer    Maximum-Head-Change  Column Row Layer    Maximum-Flux-Residual          L2-NORM 
          0                 1           2             3    7     1       0.8003017338E-02       4    5    1         0.3442635019E+00      0.1602243474E+01
          0                 2           2             4    6     1       0.1231004691E-02       4    6    1         0.6607178718E-01      0.1981470173E+00
          0                 3           2             4    6     1       0.3445614144E-03       4    6    1         0.1825153984E-01      0.3591106540E-01
          0                 4           1             4    6     1       0.9643736826E-04       4    6    1         0.5124010806E-02      0.9617796529E-02

    ------------------------------------------------
       NWT REQUIRED            4 OUTER ITERATIONS 
       AND A TOTAL OF          7 INNER ITERATIONS.
    ------------------------------------------------

 NO OUTPUT CONTROL FOR STRESS PERIOD   29   TIME STEP   23
 
 SOLVING FOR HEAD 
                                                   Max.-Head-Change                         Max.-Flux-Residual
  Residual-Control   Outer-Iter.   Inner-Iter.     Column Row Layer    Maximum-Head-Change  Column Row Layer    Maximum-Flux-Residual          L2-NORM 
          0                 1           2             3    7     1       0.7965305951E-02       4    5    1         0.3435620834E+00      0.1596326623E+01
          0                 2           2             4    6     1       0.1226887435E-02       4    6    1         0.6585505272E-01      0.1975007557E+00
          0                 3           2             4    6     1       0.3433852805E-03       4    6    1         0.1819008663E-01      0.3581854051E-01
          0                 4           1             4    6     1       0.9610255811E-04       4    6    1         0.5106433184E-02      0.9595512421E-02

    ------------------------------------------------
       NWT REQUIRED            4 OUTER ITERATIONS 
       AND A TOTAL OF          7 INNER ITERATIONS.
    ------------------------------------------------

 NO OUTPUT CONTROL FOR STRESS PERIOD   29   TIME STEP   24
 
 SOLVING FOR HEAD 
                                                   Max.-Head-Change                         Max.-Flux-Residual
  Residual-Control   Outer-Iter.   Inner-Iter.     Column Row Layer    Maximum-Head-Change  Column Row Layer    Maximum-Flux-Residual          L2-NORM 
          0                 1           2             3    7     1       0.7927648396E-02       4    5    1         0.3428537382E+00      0.1590799846E+01
          0                 2           2             4    6     1       0.1222704328E-02       4    6    1         0.6563404608E-01      0.1969345634E+00
          0                 3           2             4    6     1       0.3421961315E-03       4    6    1         0.1812773217E-01      0.3574523395E-01
          0                 4           1             4    6     1       0.9576555737E-04       4    6    1         0.5088683065E-02      0.9577804562E-02

    ------------------------------------------------
       NWT REQUIRED            4 OUTER ITERATIONS 
       AND A TOTAL OF          7 INNER ITERATIONS.
    ------------------------------------------------

 NO OUTPUT CONTROL FOR STRESS PERIOD   29   TIME STEP   25
 
 SOLVING FOR HEAD 
                                                   Max.-Head-Change                         Max.-Flux-Residual
  Residual-Control   Outer-Iter.   Inner-Iter.     Column Row Layer    Maximum-Head-Change  Column Row Layer    Maximum-Flux-Residual          L2-NORM 
          0                 1           2             3    7     1       0.7890071285E-02       4    5    1         0.3421244553E+00      0.1585600036E+01
          0                 2           2             4    6     1       0.1218509750E-02       4    6    1         0.6541181305E-01      0.1964345978E+00
          0                 3           2             4    6     1       0.3410078616E-03       4    6    1         0.1806526805E-01      0.3568775450E-01
          0                 4           1             4    6     1       0.9542989834E-04       4    6    1         0.5070961772E-02      0.9563655355E-02

    ------------------------------------------------
       NWT REQUIRED            4 OUTER ITERATIONS 
       AND A TOTAL OF          7 INNER ITERATIONS.
    ------------------------------------------------

 NO OUTPUT CONTROL FOR STRESS PERIOD   29   TIME STEP   26
 
 SOLVING FOR HEAD 
                                                   Max.-Head-Change                         Max.-Flux-Residual
  Residual-Control   Outer-Iter.   Inner-Iter.     Column Row Layer    Maximum-Head-Change  Column Row Layer    Maximum-Flux-Residual          L2-NORM 
          0                 1           2             3    7     1       0.7852844004E-02       4    5    1         0.3413829959E+00      0.1580693630E+01
          0                 2           2             4    6     1       0.1214284763E-02       4    6    1         0.6518730644E-01      0.1959909191E+00
          0                 3           2             4    6     1       0.3398155155E-03       4    6    1         0.1800241730E-01      0.3564402439E-01
          0                 4           1             4    6     1       0.9509427659E-04       4    6    1         0.5053196986E-02      0.9552674481E-02

    ------------------------------------------------
       NWT REQUIRED            4 OUTER ITERATIONS 
       AND A TOTAL OF          7 INNER ITERATIONS.
    ------------------------------------------------

 NO OUTPUT CONTROL FOR STRESS PERIOD   29   TIME STEP   27
 
 SOLVING FOR HEAD 
                                                   Max.-Head-Change                         Max.-Flux-Residual
  Residual-Control   Outer-Iter.   Inner-Iter.     Column Row Layer    Maximum-Head-Change  Column Row Layer    Maximum-Flux-Residual          L2-NORM 
          0                 1           2             3    7     1       0.7815745781E-02       4    5    1         0.3406229741E+00      0.1576050771E+01
          0                 2           2             4    6     1       0.1210081585E-02       4    6    1         0.6496343047E-01      0.1955968316E+00
          0                 3           2             4    6     1       0.3386327844E-03       4    6    1         0.1793994299E-01      0.3561206674E-01
          0                 4           1             4    6     1       0.9476227556E-04       4    6    1         0.5035588587E-02      0.9544454533E-02

    ------------------------------------------------
       NWT REQUIRED            4 OUTER ITERATIONS 
       AND A TOTAL OF          7 INNER ITERATIONS.
    ------------------------------------------------

 NO OUTPUT CONTROL FOR STRESS PERIOD   29   TIME STEP   28
 
 SOLVING FOR HEAD 
                                                   Max.-Head-Change                         Max.-Flux-Residual
  Residual-Control   Outer-Iter.   Inner-Iter.     Column Row Layer    Maximum-Head-Change  Column Row Layer    Maximum-Flux-Residual          L2-NORM 
          0                 1           2             4    8     1      -0.1049770570E-01       4    8    1        -0.5787830349E+00      0.1667905847E+01
          0                 2           2             4    8     1      -0.2098898021E-02       4    8    1        -0.1142674170E+00      0.2206066505E+00
          0                 3           2             4    8     1      -0.4183728553E-03       4    8    1        -0.2297480410E-01      0.3969187880E-01
          0                 4           1             4    6     1       0.9376666566E-04       4    6    1         0.4993211709E-02      0.9641615576E-02

    ------------------------------------------------
       NWT REQUIRED            4 OUTER ITERATIONS 
       AND A TOTAL OF          7 INNER ITERATIONS.
    ------------------------------------------------

 NO OUTPUT CONTROL FOR STRESS PERIOD   29   TIME STEP   29
 
 SOLVING FOR HEAD 
                                                   Max.-Head-Change                         Max.-Flux-Residual
  Residual-Control   Outer-Iter.   Inner-Iter.     Column Row Layer    Maximum-Head-Change  Column Row Layer    Maximum-Flux-Residual          L2-NORM 
          0                 1           2             4    8     1      -0.1142327659E-01       4    8    1        -0.6285420218E+00      0.1726291379E+01
          0                 2           2             4    8     1      -0.2287759389E-02       4    8    1        -0.1244694683E+00      0.2280952767E+00
          0                 3           2             4    8     1      -0.3813591680E-03       4    8    1        -0.2094546320E-01      0.3813586750E-01
          0                 4           1             4    6     1       0.9298287442E-04       4    6    1         0.4953675483E-02      0.8580988841E-02

    ------------------------------------------------
       NWT REQUIRED            4 OUTER ITERATIONS 
       AND A TOTAL OF          7 INNER ITERATIONS.
    ------------------------------------------------

 NO OUTPUT CONTROL FOR STRESS PERIOD   29   TIME STEP   30



 STREAM LISTING     PERIOD     29   STEP       30

 LAYER ROW COL. STREAM  RCH.  FLOW INTO     FLOW TO   FLOW OUT OF   OVRLND.     DIRECT     STREAM       STREAM     STREAM     STREAM   STREAMBED  STREAMBED
                SEG.NO.  NO.  STRM. RCH.    AQUIFER    STRM. RCH.    RUNOFF     PRECIP       ET          HEAD       DEPTH      WIDTH   CONDCTNC.   GRADIENT

   1    1    1     1     1    1.8581E+01  2.1154E-01   1.8369E+01  0.000E+00  0.000E+00  0.000E+00  1.09412E+03  1.075E+00  1.154E+01  5.191E-02  1.358E+00
   1    2    2     1     2    1.8369E+01  3.2630E-01   1.8043E+01  0.000E+00  0.000E+00  0.000E+00  1.08913E+03  1.070E+00  1.145E+01  8.016E-02  1.357E+00
   1    3    3     1     3    1.8043E+01  2.7702E-01   1.7766E+01  0.000E+00  0.000E+00  0.000E+00  1.08348E+03  1.065E+00  1.136E+01  6.814E-02  1.355E+00
   1    3    4     1     4    1.7766E+01  2.5406E-01   1.7512E+01  0.000E+00  0.000E+00  0.000E+00  1.07847E+03  1.061E+00  1.127E+01  6.256E-02  1.354E+00
   1    4    5     2     1    1.5512E+01  3.0432E-01   1.5207E+01  0.000E+00  0.000E+00  0.000E+00  1.07284E+03  9.015E-01  1.200E+01  7.800E-02  1.301E+00
   1    5    6     2     2    1.5207E+01  2.3352E-01   1.4974E+01  0.000E+00  0.000E+00  0.000E+00  1.06740E+03  8.920E-01  1.200E+01  6.000E-02  1.297E+00
   1    6    6     2     3    1.4974E+01  2.3302E-01   1.4741E+01  0.000E+00  0.000E+00  0.000E+00  1.06268E+03  8.837E-01  1.200E+01  6.000E-02  1.295E+00
   1    7    6     2     4    1.4741E+01  2.3252E-01   1.4508E+01  0.000E+00  0.000E+00  0.000E+00  1.05795E+03  8.754E-01  1.200E+01  6.000E-02  1.292E+00
   1    8    6     2     5    1.4508E+01  2.3202E-01   1.4276E+01  0.000E+00  0.000E+00  0.000E+00  1.05323E+03  8.670E-01  1.200E+01  6.000E-02  1.289E+00
   1    3    5     3     1    2.0000E+00  2.8252E-01   1.7175E+00  0.000E+00  0.000E+00  0.000E+00  1.07555E+03  1.909E+00  9.636E+00  7.227E-02  1.955E+00
   1    3    6     3     2    1.7175E+00  2.4905E-01   1.4684E+00  0.000E+00  0.000E+00  0.000E+00  1.07264E+03  1.727E+00  8.909E+00  6.682E-02  1.864E+00
   1    3    7     3     3    1.4684E+00  1.9718E-01   1.2712E+00  0.000E+00  0.000E+00  0.000E+00  1.06987E+03  1.555E+00  8.218E+00  5.547E-02  1.777E+00
   1    4    8     3     4    1.2712E+00  2.2567E-01   1.0456E+00  0.000E+00  0.000E+00  0.000E+00  1.06682E+03  1.364E+00  7.455E+00  6.709E-02  1.682E+00
   1    5    8     3     5    1.0456E+00  1.5790E-01   8.8768E-01  0.000E+00  0.000E+00  0.000E+00  1.06362E+03  1.164E+00  6.655E+00  4.991E-02  1.582E+00
   1    6    8     3     6    8.8768E-01  5.5980E-02   8.3170E-01  0.000E+00  0.000E+00  0.000E+00  1.06158E+03  1.036E+00  6.145E+00  1.844E-02  1.518E+00
   1    5   10     4     1    1.0000E+01  9.0919E-02   9.9091E+00  0.000E+00  0.000E+00  0.000E+00  1.07836E+03  6.368E-01  1.000E+01  2.500E-02  1.212E+00
   1    5    9     4     2    9.9091E+00  1.8158E-01   9.7275E+00  0.000E+00  0.000E+00  0.000E+00  1.07154E+03  6.315E-01  1.000E+01  5.000E-02  1.211E+00
   1    6    8     4     3    9.7275E+00  1.2689E-01   9.6006E+00  0.000E+00  0.000E+00  0.000E+00  1.06381E+03  6.256E-01  1.000E+01  3.500E-02  1.209E+00
   1    6    8     5     1    1.0432E+01  2.2686E-01   1.0205E+01  0.000E+00  0.000E+00  0.000E+00  1.05868E+03  6.790E-01  1.542E+01  6.166E-02  1.226E+00
   1    7    7     5     2    1.0205E+01  2.7894E-01   9.9265E+00  0.000E+00  0.000E+00  0.000E+00  1.05417E+03  6.732E-01  1.519E+01  7.594E-02  1.224E+00
   1    8    7     5     3    9.9265E+00  1.9221E-01   9.7343E+00  0.000E+00  0.000E+00  0.000E+00  1.04992E+03  6.676E-01  1.497E+01  5.241E-02  1.223E+00
   1    8    6     5     4    9.7343E+00  1.3577E-01   9.5985E+00  0.000E+00  0.000E+00  0.000E+00  1.04691E+03  6.637E-01  1.482E+01  3.706E-02  1.221E+00
   1    9    6     6     1    2.3875E+01  2.5104E-01   2.3624E+01  0.000E+00  0.000E+00  0.000E+00  1.04391E+03  1.184E+00  1.200E+01  6.000E-02  1.395E+00
   1   10    7     6     2    2.3624E+01  2.5059E-01   2.3373E+01  0.000E+00  0.000E+00  0.000E+00  1.03936E+03  1.177E+00  1.200E+01  6.000E-02  1.392E+00
   1   11    7     6     3    2.3373E+01  2.5014E-01   2.3123E+01  0.000E+00  0.000E+00  0.000E+00  1.03481E+03  1.169E+00  1.200E+01  6.000E-02  1.390E+00
   1   12    7     6     4    2.3123E+01  2.4969E-01   2.2873E+01  0.000E+00  0.000E+00  0.000E+00  1.03025E+03  1.161E+00  1.200E+01  6.000E-02  1.387E+00
   1   13    7     6     5    2.2873E+01  1.7587E-02   2.2856E+01  0.000E+00  0.000E+00  0.000E+00  1.02707E+03  1.157E+00  1.200E+01  2.400E-02  2.443E-01
   1   14    9     7     1    1.5000E+02  1.4051E+00   1.4859E+02  0.000E+00  0.000E+00  0.000E+00  1.03987E+03  2.288E+00  5.529E+01  5.593E-01  8.374E-01
   1   13    8     7     2    1.4859E+02  2.0727E+00   1.4652E+02  0.000E+00  0.000E+00  0.000E+00  1.03478E+03  2.278E+00  5.525E+01  6.147E-01  1.124E+00
   1   13    7     7     3    1.4652E+02  1.8723E+00   1.4465E+02  0.000E+00  0.000E+00  0.000E+00  1.02969E+03  2.268E+00  5.520E+01  5.583E-01  1.118E+00
   1   13    6     8     1    1.6751E+02  1.2864E+00   1.6622E+02  0.000E+00  0.000E+00  0.000E+00  1.02481E+03  2.932E+00  4.251E+01  4.332E-01  9.899E-01
   1   13    5     8     2    1.6622E+02  4.9898E-01   1.6572E+02  0.000E+00  0.000E+00  0.000E+00  1.01855E+03  2.926E+00  4.242E+01  4.323E-01  3.847E-01
   1   13    4     8     3    1.6572E+02 -1.2876E+00   1.6701E+02  0.000E+00  0.000E+00  0.000E+00  1.01230E+03  2.928E+00  4.246E+01  4.327E+00 -9.919E-02
   1   13    3     8     4    1.6701E+02 -3.0263E+00   1.7003E+02  0.000E+00  0.000E+00  0.000E+00  1.00607E+03  2.943E+00  4.267E+01  4.348E+00 -2.320E-01
   1   13    2     8     5    1.7003E+02 -2.3364E+00   1.7237E+02  0.000E+00  0.000E+00  0.000E+00  9.99835E+02  2.960E+00  4.292E+01  4.374E+00 -1.781E-01
   1   13    1     8     6    1.7237E+02 -1.9068E+00   1.7428E+02  0.000E+00  0.000E+00  0.000E+00  9.94849E+02  2.974E+00  4.312E+01  2.636E+00 -2.411E-01
   1    8    6     9     1    0.0000E+00  0.0000E+00   0.0000E+00  0.000E+00  0.000E+00  0.000E+00  1.07875E+03  0.000E+00  4.000E+00  0.000E+00  1.000E+00
   1    8    5     9     2    0.0000E+00  0.0000E+00   0.0000E+00  0.000E+00  0.000E+00  0.000E+00  1.07825E+03  0.000E+00  4.000E+00  0.000E+00  1.000E+00





UNSATURATED ZONE PACKAGE VOLUMETRIC BUDGET FOR  TIME STEP    30 STRESS PERIOD   29
  ------------------------------------------------------------------------------



     CUMULATIVE VOLUMES      L**3       RATES FOR THIS TIME STEP      L**3/T
     ------------------                 ------------------------

           IN:                                      IN:
           ---                                      ---
        INFILTRATION =  6671979999.9036          INFILTRATION =           0.8475

          OUT:                                     OUT:
          ----                                     ----
              UZF ET =   871964227.1949                UZF ET =           0.8475
        UZF RECHARGE =  5410244876.9548          UZF RECHARGE =           4.8252

            IN - OUT =   389770895.7539              IN - OUT =          -4.8252

          STORAGE:                                 STORAGE:
          --------                                 --------
      STORAGE CHANGE =   390482827.8460        STORAGE CHANGE =          -4.8252

 PERCENT DISCREPANCY IS DIFFERENCE BETWEEN IN-OUT MINUS CHANGE IN STORAGE
 DIVIDED BY THE AVERAGE OF IN AND OUT TIMES 100

 PERCENT DISCREPANCY =          -0.00     PERCENT DISCREPANCY =          -0.00






1
  VOLUMETRIC BUDGET FOR AGRICULTURAL FIELDS AT  END OF TIME STEP   30, STRESS PERIOD  29
  ------------------------------------------------------------------------------

     CUMULATIVE VOLUMES      L**3       RATES FOR THIS TIME STEP      L**3/T
     ------------------                 ------------------------

           IN:                                      IN:
           ---                                      ---
               AG WELLS  =  6318206976.0000                 AG WELLS  =           0.0000
      DIVERSION SEGMENTS =   291316640.0000        DIVERSION SEGMENTS =           0.0000
           GW IRRIGATION =           0.0000             GW IRRIGATION =           0.0000
           SW IRRIGATION =           0.0000             SW IRRIGATION =           0.0000
        SYSTEM LOSSES GW =           0.0000          SYSTEM LOSSES GW =           0.0000
        SYSTEM LOSSES SW =           0.0000          SYSTEM LOSSES SW =           0.0000

                TOTAL IN =  6609523712.0000                  TOTAL IN =           0.0000

          OUT:                                     OUT:
          ----                                     ----
               AG WELLS  =           0.0000                 AG WELLS  =           0.0000
      DIVERSION SEGMENTS =           0.0000        DIVERSION SEGMENTS =           0.0000
           GW IRRIGATION =  6318206976.0000             GW IRRIGATION =           0.0000
           SW IRRIGATION =   291322048.0000             SW IRRIGATION =           0.0000
        SYSTEM LOSSES GW =           0.0000          SYSTEM LOSSES GW =           0.0000
        SYSTEM LOSSES SW =           0.0000          SYSTEM LOSSES SW =           0.0000

               TOTAL OUT =  6609528832.0000                 TOTAL OUT =           0.0000

                IN - OUT =       -5120.0000                  IN - OUT =           0.0000

     PERCENT DISCREPANCY =          -0.00         PERCENT DISCREPANCY =           0.00



1
  VOLUMETRIC BUDGET FOR ENTIRE MODEL AT END OF TIME STEP   30, STRESS PERIOD  29
  ------------------------------------------------------------------------------

     CUMULATIVE VOLUMES      L**3       RATES FOR THIS TIME STEP      L**3/T
     ------------------                 ------------------------

           IN:                                      IN:
           ---                                      ---
             STORAGE     =  5826721792.0000               STORAGE     =           2.3843
       CONSTANT HEAD     =           0.0000         CONSTANT HEAD     =           0.0000
     HEAD DEP BOUNDS     =    21283880.0000       HEAD DEP BOUNDS     =           0.2905
      STREAM LEAKAGE     =   893529536.0000        STREAM LEAKAGE     =          12.8602
        UZF RECHARGE     =  5410244608.0000          UZF RECHARGE     =           4.8252
               GW ET     =           0.0000                 GW ET     =           0.0000
     SURFACE LEAKAGE     =           0.0000       SURFACE LEAKAGE     =           0.0000
           AG WELLS      =           0.0000             AG WELLS      =           0.0000

                TOTAL IN = 12151779328.0000                  TOTAL IN =          20.3602

          OUT:                                     OUT:
          ----                                     ----
             STORAGE     =  5107227648.0000               STORAGE     =          11.5107
       CONSTANT HEAD     =           0.0000         CONSTANT HEAD     =           0.0000
     HEAD DEP BOUNDS     =    21222706.0000       HEAD DEP BOUNDS     =           0.2877
      STREAM LEAKAGE     =   705003520.0000        STREAM LEAKAGE     =           8.5572
        UZF RECHARGE     =           0.0000          UZF RECHARGE     =           0.0000
               GW ET     =           0.0000                 GW ET     =           0.0000
     SURFACE LEAKAGE     =           0.0000       SURFACE LEAKAGE     =           0.0000
           AG WELLS      =  6318206976.0000             AG WELLS      =           0.0000

               TOTAL OUT = 12151660544.0000                 TOTAL OUT =          20.3556

                IN - OUT =      118784.0000                  IN - OUT =       4.5910E-03

     PERCENT DISCREPANCY =           0.00         PERCENT DISCREPANCY =           0.02






         TIME SUMMARY AT END OF TIME STEP   30 IN STRESS PERIOD   29
                    SECONDS     MINUTES      HOURS       DAYS        YEARS
                    -----------------------------------------------------------
   TIME STEP LENGTH  87667.      1461.1      24.352      1.0147     2.77799E-03
 STRESS PERIOD TIME 2.63000E+06  43833.      730.56      30.440     8.33397E-02
         TOTAL TIME 7.37266E+07 1.22878E+06  20480.      853.32      2.3363    
1
1
                            STRESS PERIOD NO.   30, LENGTH =   2630000.    
                            -----------------------------------------------

                              NUMBER OF TIME STEPS =    30

                               MULTIPLIER FOR DELT =     1.000

                            INITIAL TIME STEP SIZE =   87666.66    

 REUSING NON-PARAMETER GHB CELLS FROM LAST STRESS PERIOD

      2 GHB CELLS

 REUSING STREAM SEGMENT DATA FROM LAST STRESS PERIOD



            AREAL INFILTRATION RATE
 READING ON UNIT   19 WITH FORMAT: (FREE)              

            1           2           3           4           5           6           7           8           9          10
 ........................................................................................................................
   1   1.0000E-10  2.0000E-10   0.000       0.000       0.000       0.000       0.000       0.000       0.000       0.000    
   2   2.0000E-10  1.0000E-10  2.0000E-10   0.000       0.000      8.0000E-10  8.0000E-10  5.0000E-10   0.000       0.000    
   3    0.000      5.0000E-10  1.0000E-10  1.0000E-10  8.0000E-10  8.0000E-10  5.0000E-10  5.0000E-10   0.000       0.000    
   4   8.0000E-10  5.0000E-10  1.0000E-10  1.0000E-10  1.0000E-10  1.0000E-10  1.0000E-10  1.0000E-10  2.0000E-10   0.000    
   5   8.0000E-10  5.0000E-10  1.0000E-10  1.0000E-10  1.0000E-10  1.0000E-10  1.0000E-10  1.0000E-10  1.0000E-10  1.0000E-10
   6   8.0000E-10  5.0000E-10  5.0000E-10  2.0000E-10  2.0000E-10  1.0000E-10  1.0000E-10  1.0000E-10  1.0000E-10  5.0000E-10
   7   8.0000E-10  5.0000E-10  5.0000E-10  2.0000E-10  2.0000E-10  1.0000E-10  1.0000E-10  2.0000E-10  2.0000E-10   0.000    
   8    0.000      5.0000E-10  5.0000E-10  2.0000E-10  2.0000E-10  1.0000E-10  1.0000E-10  2.0000E-10  5.0000E-10   0.000    
   9    0.000      5.0000E-10  5.0000E-10  2.0000E-10  2.0000E-10  1.0000E-10  1.0000E-10  2.0000E-10  5.0000E-10   0.000    
  10    0.000      5.0000E-10  5.0000E-10  2.0000E-10  2.0000E-10  1.0000E-10  1.0000E-10  2.0000E-10  5.0000E-10  8.0000E-10
  11    0.000      1.0000E-10  1.0000E-10  1.0000E-10  1.0000E-10  1.0000E-10  1.0000E-10  2.0000E-10  5.0000E-10   0.000    
  12   1.0000E-10  1.0000E-10  1.0000E-10  1.0000E-10  1.0000E-10  1.0000E-10  1.0000E-10  1.0000E-10  2.0000E-10   0.000    
  13   1.0000E-10  1.0000E-10  2.0000E-10  2.0000E-10  2.0000E-10  2.0000E-10  2.0000E-10  1.0000E-10  1.0000E-10   0.000    
  14    0.000      2.0000E-10  5.0000E-10  5.0000E-10  5.0000E-10  5.0000E-10  5.0000E-10  2.0000E-10  1.0000E-10   0.000    
  15    0.000       0.000      8.0000E-10  8.0000E-10  8.0000E-10  8.0000E-10   0.000       0.000       0.000       0.000    

                  ET RATE =  5.000000E-08

 USING ET EXTINCTION DEPTH FROM PREVIOUS STRESS PERIOD. CURRENT PERIOD IS:      30

 USING EXTINCTION WATER CONTENT FROM PREVIOUS STRESS PERIOD. CURRENT PERIOD IS:      30

 USING AIR ENTRY PRESSURE FROM PREVIOUS STRESS PERIOD. CURRENT PERIOD IS:      30

 USING ROOT PRESSURE HEAD FROM PREVIOUS STRESS PERIOD. CURRENT PERIOD IS:      30

 USING ROOT ACTIVITY FROM PREVIOUS STRESS PERIOD. CURRENT PERIOD IS:      30

 PROCESSING AG STRESS PERIOD DATA

 READING AG STRESS PERIOD DATA

 READING IRRIGATION SEGMENT

 READING IRRIGATION WELL

 READING SUPPLEMENTAL WELL

 END PROCESSING AG STRESS PERIOD DATA OPTIONS
 
 SOLVING FOR HEAD 
                                                   Max.-Head-Change                         Max.-Flux-Residual
  Residual-Control   Outer-Iter.   Inner-Iter.     Column Row Layer    Maximum-Head-Change  Column Row Layer    Maximum-Flux-Residual          L2-NORM 
          0                 1           2             4    8     1      -0.1076179652E-01       4   13    1         0.6058134158E+00      0.2019200819E+01
          0                 2           2             4    8     1      -0.1894723092E+01       4    8    1        -0.1001172582E+03      0.2449057492E+03
          0                 3           2             4    8     1       0.1827984710E+00       4    8    1         0.1003205563E+02      0.1666091759E+02
          0                 4           2             4    8     1      -0.1234794076E-01       4    8    1        -0.7008038222E+00      0.8884576563E+00
          0                 5           2             4    8     1       0.4913314855E-03       4    8    1         0.2886275045E-01      0.2972643419E-01
          0                 6           1             4    8     1      -0.6058337070E-05       4    8    1        -0.3682408412E-03      0.3846176741E-03

    ------------------------------------------------
       NWT REQUIRED            6 OUTER ITERATIONS 
       AND A TOTAL OF         11 INNER ITERATIONS.
    ------------------------------------------------

 NO OUTPUT CONTROL FOR STRESS PERIOD   30   TIME STEP    1
 
 SOLVING FOR HEAD 
                                                   Max.-Head-Change                         Max.-Flux-Residual
  Residual-Control   Outer-Iter.   Inner-Iter.     Column Row Layer    Maximum-Head-Change  Column Row Layer    Maximum-Flux-Residual          L2-NORM 
          0                 1           2             5    8     1       0.4918276184E-01       5    8    1         0.2724197800E+01      0.5051639762E+01
          0                 2           2             5    8     1      -0.4784098066E-02       5    8    1        -0.2724166406E+00      0.5044530480E+00
          0                 3           2             5    8     1       0.3257797850E-03       5    8    1         0.1906920313E-01      0.3525907720E-01
          0                 4           1             5    8     1      -0.1296308033E-04       5    8    1        -0.7799313444E-03      0.1438898227E-02

    ------------------------------------------------
       NWT REQUIRED            4 OUTER ITERATIONS 
       AND A TOTAL OF          7 INNER ITERATIONS.
    ------------------------------------------------

 NO OUTPUT CONTROL FOR STRESS PERIOD   30   TIME STEP    2
 
 SOLVING FOR HEAD 
                                                   Max.-Head-Change                         Max.-Flux-Residual
  Residual-Control   Outer-Iter.   Inner-Iter.     Column Row Layer    Maximum-Head-Change  Column Row Layer    Maximum-Flux-Residual          L2-NORM 
          0                 1           2             5    8     1       0.4617794453E-01       5    8    1         0.2555833620E+01      0.4759334637E+01
          0                 2           2             5    8     1      -0.4547995557E-02       5    8    1        -0.2592435013E+00      0.4768591322E+00
          0                 3           2             5    8     1       0.3097017272E-03       5    8    1         0.1814705912E-01      0.3333292861E-01
          0                 4           1             5    8     1      -0.1232332120E-04       5    8    1        -0.7422157194E-03      0.1360538620E-02

    ------------------------------------------------
       NWT REQUIRED            4 OUTER ITERATIONS 
       AND A TOTAL OF          7 INNER ITERATIONS.
    ------------------------------------------------

 NO OUTPUT CONTROL FOR STRESS PERIOD   30   TIME STEP    3
 
 SOLVING FOR HEAD 
                                                   Max.-Head-Change                         Max.-Flux-Residual
  Residual-Control   Outer-Iter.   Inner-Iter.     Column Row Layer    Maximum-Head-Change  Column Row Layer    Maximum-Flux-Residual          L2-NORM 
          0                 1           2             5    8     1       0.4326362102E-01       5    8    1         0.2396681469E+01      0.4488384369E+01
          0                 2           2             5    8     1      -0.4208362633E-02       5    8    1        -0.2396675732E+00      0.4483613486E+00
          0                 3           2             5    8     1       0.2865739786E-03       5    8    1         0.1677674315E-01      0.3134242426E-01
          0                 4           1             5    8     1      -0.1140304654E-04       5    8    1        -0.6861697382E-03      0.1279358518E-02

    ------------------------------------------------
       NWT REQUIRED            4 OUTER ITERATIONS 
       AND A TOTAL OF          7 INNER ITERATIONS.
    ------------------------------------------------

 NO OUTPUT CONTROL FOR STRESS PERIOD   30   TIME STEP    4
 
 SOLVING FOR HEAD 
                                                   Max.-Head-Change                         Max.-Flux-Residual
  Residual-Control   Outer-Iter.   Inner-Iter.     Column Row Layer    Maximum-Head-Change  Column Row Layer    Maximum-Flux-Residual          L2-NORM 
          0                 1           2             5    8     1       0.4061646120E-01       5    8    1         0.2248232430E+01      0.4237417146E+01
          0                 2           2             5    8     1      -0.3950868403E-02       5    8    1        -0.2248228274E+00      0.4233118506E+00
          0                 3           2             5    8     1       0.2690395542E-03       5    8    1         0.1573760902E-01      0.2959320152E-01
          0                 4           1             5    8     1      -0.1070533541E-04       5    8    1        -0.6436690896E-03      0.1207923718E-02

    ------------------------------------------------
       NWT REQUIRED            4 OUTER ITERATIONS 
       AND A TOTAL OF          7 INNER ITERATIONS.
    ------------------------------------------------

 NO OUTPUT CONTROL FOR STRESS PERIOD   30   TIME STEP    5
 
 SOLVING FOR HEAD 
                                                   Max.-Head-Change                         Max.-Flux-Residual
  Residual-Control   Outer-Iter.   Inner-Iter.     Column Row Layer    Maximum-Head-Change  Column Row Layer    Maximum-Flux-Residual          L2-NORM 
          0                 1           2             5    8     1       0.3816207841E-01       5    8    1         0.2110673879E+01      0.4005075635E+01
          0                 2           2             5    8     1      -0.3769998798E-02       5    8    1        -0.2142533215E+00      0.4050393275E+00
          0                 3           2             5    8     1       0.1766268258E-03       5    8    1         0.1046473839E-01      0.2299942822E-01
          0                 4           1             5    8     1      -0.3580977719E-04       5    8    1        -0.2102270689E-02      0.4919527703E-02

    ------------------------------------------------
       NWT REQUIRED            4 OUTER ITERATIONS 
       AND A TOTAL OF          7 INNER ITERATIONS.
    ------------------------------------------------

 NO OUTPUT CONTROL FOR STRESS PERIOD   30   TIME STEP    6
 
 SOLVING FOR HEAD 
                                                   Max.-Head-Change                         Max.-Flux-Residual
  Residual-Control   Outer-Iter.   Inner-Iter.     Column Row Layer    Maximum-Head-Change  Column Row Layer    Maximum-Flux-Residual          L2-NORM 
          0                 1           2             5    8     1       0.3589014287E-01       5    8    1         0.1983410196E+01      0.3790407979E+01
          0                 2           2             4    7     1      -0.1915185362E+01       5    8    1        -0.1001983408E+03      0.2451823248E+03
          0                 3           2             4    7     1       0.1862760371E+00       4    7    1         0.1013261775E+02      0.1863205110E+02
          0                 4           2             4    7     1      -0.1268561857E-01       4    7    1        -0.7185226144E+00      0.9594137465E+00
          0                 5           1             4    7     1       0.5047665783E-03       4    7    1         0.2975133055E-01      0.3082690317E-01
          0                 6           1             4    7     1      -0.6224001412E-05       4    7    1        -0.3815177306E-03      0.4035835608E-03

    ------------------------------------------------
       NWT REQUIRED            6 OUTER ITERATIONS 
       AND A TOTAL OF         10 INNER ITERATIONS.
    ------------------------------------------------

 NO OUTPUT CONTROL FOR STRESS PERIOD   30   TIME STEP    7
 
 SOLVING FOR HEAD 
                                                   Max.-Head-Change                         Max.-Flux-Residual
  Residual-Control   Outer-Iter.   Inner-Iter.     Column Row Layer    Maximum-Head-Change  Column Row Layer    Maximum-Flux-Residual          L2-NORM 
          0                 1           2             5    8     1       0.8752505902E-01       5    8    1         0.4830381479E+01      0.9676660602E+01
          0                 2           2             5    8     1      -0.8513714773E-02       5    8    1        -0.4830321341E+00      0.9674787361E+00
          0                 3           2             5    8     1       0.5797532688E-03       5    8    1         0.3381232123E-01      0.6770952424E-01
          0                 4           1             5    8     1      -0.2306892157E-04       5    8    1        -0.1382925620E-02      0.2768428441E-02

    ------------------------------------------------
       NWT REQUIRED            4 OUTER ITERATIONS 
       AND A TOTAL OF          7 INNER ITERATIONS.
    ------------------------------------------------

 NO OUTPUT CONTROL FOR STRESS PERIOD   30   TIME STEP    8
 
 SOLVING FOR HEAD 
                                                   Max.-Head-Change                         Max.-Flux-Residual
  Residual-Control   Outer-Iter.   Inner-Iter.     Column Row Layer    Maximum-Head-Change  Column Row Layer    Maximum-Flux-Residual          L2-NORM 
          0                 1           2             5    8     1       0.8248496083E-01       5    8    1         0.4548287823E+01      0.9181790591E+01
          0                 2           2             5    8     1      -0.8023463116E-02       5    8    1        -0.4548236410E+00      0.9180109530E+00
          0                 3           2             5    8     1       0.5463688264E-03       5    8    1         0.3183771761E-01      0.6424814791E-01
          0                 4           1             5    8     1      -0.2174052348E-04       5    8    1        -0.1302164225E-02      0.2627038210E-02

    ------------------------------------------------
       NWT REQUIRED            4 OUTER ITERATIONS 
       AND A TOTAL OF          7 INNER ITERATIONS.
    ------------------------------------------------

 NO OUTPUT CONTROL FOR STRESS PERIOD   30   TIME STEP    9
 
 SOLVING FOR HEAD 
                                                   Max.-Head-Change                         Max.-Flux-Residual
  Residual-Control   Outer-Iter.   Inner-Iter.     Column Row Layer    Maximum-Head-Change  Column Row Layer    Maximum-Flux-Residual          L2-NORM 
          0                 1           2             5    8     1       0.7780263098E-01       5    8    1         0.4286385599E+01      0.8721387961E+01
          0                 2           2             5    8     1      -0.7568010570E-02       5    8    1        -0.4286341504E+00      0.8719878114E+00
          0                 3           2             5    8     1       0.5153540944E-03       5    8    1         0.3000444556E-01      0.6102786444E-01
          0                 4           1             5    8     1      -0.2050641915E-04       5    8    1        -0.1227183345E-02      0.2495316243E-02

    ------------------------------------------------
       NWT REQUIRED            4 OUTER ITERATIONS 
       AND A TOTAL OF          7 INNER ITERATIONS.
    ------------------------------------------------

 NO OUTPUT CONTROL FOR STRESS PERIOD   30   TIME STEP   10
 
 SOLVING FOR HEAD 
                                                   Max.-Head-Change                         Max.-Flux-Residual
  Residual-Control   Outer-Iter.   Inner-Iter.     Column Row Layer    Maximum-Head-Change  Column Row Layer    Maximum-Flux-Residual          L2-NORM 
          0                 1           2             5    8     1       0.7344971500E-01       5    8    1         0.4043064475E+01      0.8292651816E+01
          0                 2           2             5    8     1      -0.7144599359E-02       5    8    1        -0.4043026530E+00      0.8289342656E+00
          0                 3           2             5    8     1       0.4865212742E-03       5    8    1         0.2830123418E-01      0.5801517967E-01
          0                 4           1             5    8     1      -0.1935913428E-04       5    8    1        -0.1157521923E-02      0.2372211603E-02

    ------------------------------------------------
       NWT REQUIRED            4 OUTER ITERATIONS 
       AND A TOTAL OF          7 INNER ITERATIONS.
    ------------------------------------------------

 NO OUTPUT CONTROL FOR STRESS PERIOD   30   TIME STEP   11
 
 SOLVING FOR HEAD 
                                                   Max.-Head-Change                         Max.-Flux-Residual
  Residual-Control   Outer-Iter.   Inner-Iter.     Column Row Layer    Maximum-Head-Change  Column Row Layer    Maximum-Flux-Residual          L2-NORM 
          0                 1           2             5    8     1       0.6940046251E-01       5    8    1         0.3816862116E+01      0.7893202368E+01
          0                 2           2             5    8     1      -0.6971699802E-02       5    8    1        -0.3938487202E+00      0.8118592332E+00
          0                 3           2             4    7     1      -0.2836413007E-03       4    7    1        -0.1563493733E-01      0.3764117281E-01
          0                 4           2             4    7     1       0.4799804965E-03       4    7    1         0.2651139748E-01      0.6354558178E-01
          0                 5           2             4    7     1      -0.1280364529E-02       4    7    1        -0.7261060605E-01      0.1777895015E+00
          0                 6           2             4    7     1      -0.1145366787E-02       4    8    1        -0.6495295011E-01      0.1603211101E+00
          0                 7           2             4    7     1       0.2370097203E-02       5    8    1         0.1381424760E+00      0.3402778190E+00
          0                 8           2             4    7     1      -0.8259708416E-02       5    8    1        -0.4947567485E+00      0.1211900840E+01
          0                 9           2             4    7     1       0.7869352673E-02       5    8    1         0.4843946902E+00      0.1193090905E+01
          0                10           2             4    7     1       0.5273316017E-03       4    7    1         0.3245852617E-01      0.7951224187E-01
          0                11           1             4    7     1       0.3533166428E-04       4    7    1         0.2174685388E-02      0.5326379919E-02

    ------------------------------------------------
       NWT REQUIRED           11 OUTER ITERATIONS 
       AND A TOTAL OF         21 INNER ITERATIONS.
    ------------------------------------------------

 NO OUTPUT CONTROL FOR STRESS PERIOD   30   TIME STEP   12
 
 SOLVING FOR HEAD 
                                                   Max.-Head-Change                         Max.-Flux-Residual
  Residual-Control   Outer-Iter.   Inner-Iter.     Column Row Layer    Maximum-Head-Change  Column Row Layer    Maximum-Flux-Residual          L2-NORM 
          0                 1           2             5    8     1       0.6563118250E-01       5    8    1         0.3606436500E+01      0.7521613238E+01
          0                 2           2             5    8     1      -0.6384082389E-02       5    8    1        -0.3606407728E+00      0.7520457537E+00
          0                 3           2             5    8     1       0.4347327539E-03       5    8    1         0.2524489221E-01      0.5263446482E-01
          0                 4           1             5    8     1      -0.1729842149E-04       5    8    1        -0.1032517406E-02      0.2152144144E-02

    ------------------------------------------------
       NWT REQUIRED            4 OUTER ITERATIONS 
       AND A TOTAL OF          7 INNER ITERATIONS.
    ------------------------------------------------

 NO OUTPUT CONTROL FOR STRESS PERIOD   30   TIME STEP   13
 
 SOLVING FOR HEAD 
                                                   Max.-Head-Change                         Max.-Flux-Residual
  Residual-Control   Outer-Iter.   Inner-Iter.     Column Row Layer    Maximum-Head-Change  Column Row Layer    Maximum-Flux-Residual          L2-NORM 
          0                 1           2             5    8     1       0.6212055786E-01       5    8    1         0.3410572188E+01      0.7173605219E+01
          0                 2           2             4    7     1      -0.1864714914E+01       5    8    1        -0.1003410547E+03      0.2454985354E+03
          0                 3           2             4    7     1       0.1269609432E+00       5    8    1         0.7021652090E+01      0.1720821727E+02
          0                 4           2             4    7     1      -0.5051987222E-02       5    8    1        -0.2870673007E+00      0.7057277433E+00
          0                 5           1             4    7     1       0.6229304037E-04       4    8    1         0.3631061901E-02      0.9289055205E-02

    ------------------------------------------------
       NWT REQUIRED            5 OUTER ITERATIONS 
       AND A TOTAL OF          9 INNER ITERATIONS.
    ------------------------------------------------

 NO OUTPUT CONTROL FOR STRESS PERIOD   30   TIME STEP   14
 
 SOLVING FOR HEAD 
                                                   Max.-Head-Change                         Max.-Flux-Residual
  Residual-Control   Outer-Iter.   Inner-Iter.     Column Row Layer    Maximum-Head-Change  Column Row Layer    Maximum-Flux-Residual          L2-NORM 
          0                 1           2             5    8     1       0.1126007621E+00       5    8    1         0.6193624258E+01      0.1304847823E+02
          0                 2           2             5    8     1      -0.1095281836E-01       5    8    1        -0.6193509709E+00      0.1304730623E+01
          0                 3           2             5    8     1       0.7458479485E-03       5    8    1         0.4335469539E-01      0.9132586452E-01
          0                 4           1             5    8     1      -0.2967798057E-04       5    8    1        -0.1773209015E-02      0.3734845579E-02

    ------------------------------------------------
       NWT REQUIRED            4 OUTER ITERATIONS 
       AND A TOTAL OF          7 INNER ITERATIONS.
    ------------------------------------------------

 NO OUTPUT CONTROL FOR STRESS PERIOD   30   TIME STEP   15
 
 SOLVING FOR HEAD 
                                                   Max.-Head-Change                         Max.-Flux-Residual
  Residual-Control   Outer-Iter.   Inner-Iter.     Column Row Layer    Maximum-Head-Change  Column Row Layer    Maximum-Flux-Residual          L2-NORM 
          0                 1           2             5    8     1       0.1064722233E+00       5    8    1         0.5851333617E+01      0.1243819620E+02
          0                 2           2             5    8     1      -0.1035669872E-01       5    8    1        -0.5851233097E+00      0.1243714504E+01
          0                 3           2             5    8     1       0.7052542148E-03       5    8    1         0.4095874481E-01      0.8705523838E-01
          0                 4           1             5    8     1      -0.2806271893E-04       5    8    1        -0.1675214555E-02      0.3560206175E-02

    ------------------------------------------------
       NWT REQUIRED            4 OUTER ITERATIONS 
       AND A TOTAL OF          7 INNER ITERATIONS.
    ------------------------------------------------

 NO OUTPUT CONTROL FOR STRESS PERIOD   30   TIME STEP   16
 
 SOLVING FOR HEAD 
                                                   Max.-Head-Change                         Max.-Flux-Residual
  Residual-Control   Outer-Iter.   Inner-Iter.     Column Row Layer    Maximum-Head-Change  Column Row Layer    Maximum-Flux-Residual          L2-NORM 
          0                 1           2             5    8     1       0.1007664604E+00       5    8    1         0.5532866383E+01      0.1186861150E+02
          0                 2           2             5    8     1      -0.9801700738E-02       5    8    1        -0.5532777830E+00      0.1186766958E+01
          0                 3           2             5    8     1       0.6674607420E-03       5    8    1         0.3872954566E-01      0.8306952588E-01
          0                 4           1             5    8     1      -0.2655888226E-04       5    8    1        -0.1584040241E-02      0.3397225616E-02

    ------------------------------------------------
       NWT REQUIRED            4 OUTER ITERATIONS 
       AND A TOTAL OF          7 INNER ITERATIONS.
    ------------------------------------------------

 NO OUTPUT CONTROL FOR STRESS PERIOD   30   TIME STEP   17
 
 SOLVING FOR HEAD 
                                                   Max.-Head-Change                         Max.-Flux-Residual
  Residual-Control   Outer-Iter.   Inner-Iter.     Column Row Layer    Maximum-Head-Change  Column Row Layer    Maximum-Flux-Residual          L2-NORM 
          0                 1           2             5    8     1       0.9545075515E-01       5    8    1         0.5236366231E+01      0.1133651104E+02
          0                 2           2             5    8     1      -0.9284642268E-02       5    8    1        -0.5236287916E+00      0.1133566382E+01
          0                 3           2             5    8     1       0.6322508333E-03       5    8    1         0.3665410568E-01      0.7934577975E-01
          0                 4           1             5    8     1      -0.2515784729E-04       5    8    1        -0.1499154660E-02      0.3244979115E-02

    ------------------------------------------------
       NWT REQUIRED            4 OUTER ITERATIONS 
       AND A TOTAL OF          7 INNER ITERATIONS.
    ------------------------------------------------

 NO OUTPUT CONTROL FOR STRESS PERIOD   30   TIME STEP   18
 
 SOLVING FOR HEAD 
                                                   Max.-Head-Change                         Max.-Flux-Residual
  Residual-Control   Outer-Iter.   Inner-Iter.     Column Row Layer    Maximum-Head-Change  Column Row Layer    Maximum-Flux-Residual          L2-NORM 
          0                 1           2             5    8     1       0.9049506159E-01       5    8    1         0.4960128983E+01      0.1083894841E+02
          0                 2           2             5    8     1      -0.9025313584E-02       5    8    1        -0.5082673226E+00      0.1107949944E+01
          0                 3           2             6    7     1      -0.3076954773E-03       6    7    1        -0.1746356872E-01      0.4655946075E-01
          0                 4           2             4    7     1       0.4856653841E-03       4    7    1         0.2682568794E-01      0.6434162935E-01
          0                 5           2             4    7     1      -0.1340045400E-02       4    7    1        -0.7599252537E-01      0.1860703173E+00
          0                 6           2             4    7     1      -0.2113311211E-02       4    8    1        -0.1198402042E+00      0.2942663692E+00
          0                 7           2             4    7     1       0.3344930829E-02       5    8    1         0.1949547392E+00      0.4800707221E+00
          0                 8           1             4    7     1       0.8249022090E-04       4    7    1         0.4807558178E-02      0.1181546227E-01

    ------------------------------------------------
       NWT REQUIRED            8 OUTER ITERATIONS 
       AND A TOTAL OF         15 INNER ITERATIONS.
    ------------------------------------------------

 NO OUTPUT CONTROL FOR STRESS PERIOD   30   TIME STEP   19
 
 SOLVING FOR HEAD 
                                                   Max.-Head-Change                         Max.-Flux-Residual
  Residual-Control   Outer-Iter.   Inner-Iter.     Column Row Layer    Maximum-Head-Change  Column Row Layer    Maximum-Flux-Residual          L2-NORM 
          0                 1           2             5    8     1       0.8587701519E-01       5    8    1         0.4702880877E+01      0.1037406644E+02
          0                 2           2             4    7     1      -0.1866423881E+01       5    8    1        -0.1004702819E+03      0.2457836852E+03
          0                 3           2             4    7     1       0.1270773795E+00       5    8    1         0.7030745234E+01      0.1722796701E+02
          0                 4           2             4    7     1      -0.5056619991E-02       5    8    1        -0.2874435163E+00      0.7065129988E+00
          0                 5           1             4    7     1       0.6235016503E-04       4    8    1         0.3635378477E-02      0.9294122375E-02

    ------------------------------------------------
       NWT REQUIRED            5 OUTER ITERATIONS 
       AND A TOTAL OF          9 INNER ITERATIONS.
    ------------------------------------------------

 NO OUTPUT CONTROL FOR STRESS PERIOD   30   TIME STEP   20
 
 SOLVING FOR HEAD 
                                                   Max.-Head-Change                         Max.-Flux-Residual
  Residual-Control   Outer-Iter.   Inner-Iter.     Column Row Layer    Maximum-Head-Change  Column Row Layer    Maximum-Flux-Residual          L2-NORM 
          0                 1           2             5    8     1       0.1353120193E+00       5    8    1         0.7428007052E+01      0.1611089707E+02
          0                 2           2             5    8     1      -0.1316191454E-01       5    8    1        -0.7427830104E+00      0.1610791289E+01
          0                 3           2             5    8     1       0.8962800888E-03       5    8    1         0.5199500093E-01      0.1127528658E+00
          0                 4           1             5    8     1      -0.3566381232E-04       5    8    1        -0.2126597733E-02      0.4611415639E-02

    ------------------------------------------------
       NWT REQUIRED            4 OUTER ITERATIONS 
       AND A TOTAL OF          7 INNER ITERATIONS.
    ------------------------------------------------

 NO OUTPUT CONTROL FOR STRESS PERIOD   30   TIME STEP   21
 
 SOLVING FOR HEAD 
                                                   Max.-Head-Change                         Max.-Flux-Residual
  Residual-Control   Outer-Iter.   Inner-Iter.     Column Row Layer    Maximum-Head-Change  Column Row Layer    Maximum-Flux-Residual          L2-NORM 
          0                 1           2             5    8     1       0.1282037656E+00       5    8    1         0.7031492268E+01      0.1539894709E+02
          0                 2           2             5    8     1      -0.1247050347E-01       5    8    1        -0.7031335101E+00      0.1539791664E+01
          0                 3           2             5    8     1       0.8491972813E-03       5    8    1         0.4921951600E-01      0.1077831325E+00
          0                 4           1             5    8     1      -0.3379034456E-04       5    8    1        -0.2013080326E-02      0.4408158975E-02

    ------------------------------------------------
       NWT REQUIRED            4 OUTER ITERATIONS 
       AND A TOTAL OF          7 INNER ITERATIONS.
    ------------------------------------------------

 NO OUTPUT CONTROL FOR STRESS PERIOD   30   TIME STEP   22
 
 SOLVING FOR HEAD 
                                                   Max.-Head-Change                         Max.-Flux-Residual
  Residual-Control   Outer-Iter.   Inner-Iter.     Column Row Layer    Maximum-Head-Change  Column Row Layer    Maximum-Flux-Residual          L2-NORM 
          0                 1           2             5    8     1       0.1215776468E+00       5    8    1         0.6662121374E+01      0.1473336674E+02
          0                 2           2             5    8     1      -0.1182598723E-01       5    8    1        -0.6661981237E+00      0.1473241014E+01
          0                 3           2             5    8     1       0.8053078750E-03       5    8    1         0.4663402171E-01      0.1031248388E+00
          0                 4           1             5    8     1      -0.3204394486E-04       5    8    1        -0.1907333520E-02      0.4217645459E-02

    ------------------------------------------------
       NWT REQUIRED            4 OUTER ITERATIONS 
       AND A TOTAL OF          7 INNER ITERATIONS.
    ------------------------------------------------

 NO OUTPUT CONTROL FOR STRESS PERIOD   30   TIME STEP   23
 
 SOLVING FOR HEAD 
                                                   Max.-Head-Change                         Max.-Flux-Residual
  Residual-Control   Outer-Iter.   Inner-Iter.     Column Row Layer    Maximum-Head-Change  Column Row Layer    Maximum-Flux-Residual          L2-NORM 
          0                 1           2             5    8     1       0.1153966390E+00       5    8    1         0.6317795037E+01      0.1411048065E+02
          0                 2           2             5    8     1      -0.1122476485E-01       5    8    1        -0.6317669612E+00      0.1410965181E+01
          0                 3           2             5    8     1       0.7643666534E-03       5    8    1         0.4422382538E-01      0.9876574931E-01
          0                 4           1             5    8     1      -0.3041485662E-04       5    8    1        -0.1808756430E-02      0.4039366717E-02

    ------------------------------------------------
       NWT REQUIRED            4 OUTER ITERATIONS 
       AND A TOTAL OF          7 INNER ITERATIONS.
    ------------------------------------------------

 NO OUTPUT CONTROL FOR STRESS PERIOD   30   TIME STEP   24
 
 SOLVING FOR HEAD 
                                                   Max.-Head-Change                         Max.-Flux-Residual
  Residual-Control   Outer-Iter.   Inner-Iter.     Column Row Layer    Maximum-Head-Change  Column Row Layer    Maximum-Flux-Residual          L2-NORM 
          0                 1           2             5    8     1       0.1096270072E+00       5    8    1         0.5996601414E+01      0.1352698857E+02
          0                 2           2             5    8     1      -0.1088316455E-01       5    8    1        -0.6117392977E+00      0.1377069465E+01
          0                 3           2             5    8     1       0.3836879683E-03       5    8    1         0.2259441848E-01      0.6202818861E-01
          0                 4           2             4    7     1       0.4528381671E-03       4    7    1         0.2500352962E-01      0.6027800097E-01
          0                 5           2             4    7     1      -0.1218597833E-02       4    7    1        -0.6910269955E-01      0.1692102236E+00
          0                 6           2             4    7     1       0.1109296330E-02       5    8    1         0.6465207475E-01      0.1594479377E+00
          0                 7           2             4    7     1       0.1142810967E-03       4    7    1         0.6660371684E-02      0.1641339648E-01
          0                 8           1             4    7     1      -0.2056531735E-04       5    8    1        -0.1231887141E-02      0.3322005823E-02

    ------------------------------------------------
       NWT REQUIRED            8 OUTER ITERATIONS 
       AND A TOTAL OF         15 INNER ITERATIONS.
    ------------------------------------------------

 NO OUTPUT CONTROL FOR STRESS PERIOD   30   TIME STEP   25
 
 SOLVING FOR HEAD 
                                                   Max.-Head-Change                         Max.-Flux-Residual
  Residual-Control   Outer-Iter.   Inner-Iter.     Column Row Layer    Maximum-Head-Change  Column Row Layer    Maximum-Flux-Residual          L2-NORM 
          0                 1           2             5    8     1       0.1042414878E+00       5    8    1         0.5696991481E+01      0.1298038153E+02
          0                 2           2             4    7     1      -0.1868133972E+01       5    8    1        -0.1005696890E+03      0.2460243404E+03
          0                 3           2             4    7     1       0.1271938386E+00       5    8    1         0.7037736993E+01      0.1724466662E+02
          0                 4           2             4    7     1      -0.5061253929E-02       5    8    1        -0.2877324032E+00      0.7071649766E+00
          0                 5           1             4    7     1       0.6240730402E-04       4    8    1         0.3639064348E-02      0.9292974503E-02

    ------------------------------------------------
       NWT REQUIRED            5 OUTER ITERATIONS 
       AND A TOTAL OF          9 INNER ITERATIONS.
    ------------------------------------------------

 NO OUTPUT CONTROL FOR STRESS PERIOD   30   TIME STEP   26
 
 SOLVING FOR HEAD 
                                                   Max.-Head-Change                         Max.-Flux-Residual
  Residual-Control   Outer-Iter.   Inner-Iter.     Column Row Layer    Maximum-Head-Change  Column Row Layer    Maximum-Flux-Residual          L2-NORM 
          0                 1           2             5    8     1       0.1529494072E+00       5    8    1         0.8381968613E+01      0.1858721941E+02
          0                 2           2             5    8     1      -0.1487746956E-01       5    8    1        -0.8381734994E+00      0.1858597725E+01
          0                 3           2             5    8     1       0.1013103824E-02       5    8    1         0.5867239165E-01      0.1301006731E+00
          0                 4           1             5    8     1      -0.4031233406E-04       5    8    1        -0.2399703134E-02      0.5320987679E-02

    ------------------------------------------------
       NWT REQUIRED            4 OUTER ITERATIONS 
       AND A TOTAL OF          7 INNER ITERATIONS.
    ------------------------------------------------

 NO OUTPUT CONTROL FOR STRESS PERIOD   30   TIME STEP   27
 
 SOLVING FOR HEAD 
                                                   Max.-Head-Change                         Max.-Flux-Residual
  Residual-Control   Outer-Iter.   Inner-Iter.     Column Row Layer    Maximum-Head-Change  Column Row Layer    Maximum-Flux-Residual          L2-NORM 
          0                 1           2             5    8     1       0.1451612428E+00       5    8    1         0.7947983914E+01      0.1780532674E+02
          0                 2           2             5    8     1      -0.1411429131E-01       5    8    1        -0.7943021256E+00      0.1780422409E+01
          0                 3           2             5    8     1       0.9611321753E-03       5    8    1         0.5560133698E-01      0.1246610982E+00
          0                 4           1             5    8     1      -0.3824433761E-04       5    8    1        -0.2274097089E-02      0.5098520099E-02

    ------------------------------------------------
       NWT REQUIRED            4 OUTER ITERATIONS 
       AND A TOTAL OF          7 INNER ITERATIONS.
    ------------------------------------------------

 NO OUTPUT CONTROL FOR STRESS PERIOD   30   TIME STEP   28
 
 SOLVING FOR HEAD 
                                                   Max.-Head-Change                         Max.-Flux-Residual
  Residual-Control   Outer-Iter.   Inner-Iter.     Column Row Layer    Maximum-Head-Change  Column Row Layer    Maximum-Flux-Residual          L2-NORM 
          0                 1           2             5    8     1       0.1379237296E+00       5    8    1         0.7543577911E+01      0.1707318225E+02
          0                 2           2             5    8     1      -0.1341599839E-01       5    8    1        -0.7543418543E+00      0.1706885164E+01
          0                 3           2             5    8     1       0.9135820223E-03       5    8    1         0.5280410370E-01      0.1194810239E+00
          0                 4           1             5    8     1      -0.3635227341E-04       5    8    1        -0.2159690159E-02      0.4886674239E-02

    ------------------------------------------------
       NWT REQUIRED            4 OUTER ITERATIONS 
       AND A TOTAL OF          7 INNER ITERATIONS.
    ------------------------------------------------

 NO OUTPUT CONTROL FOR STRESS PERIOD   30   TIME STEP   29
 
 SOLVING FOR HEAD 
                                                   Max.-Head-Change                         Max.-Flux-Residual
  Residual-Control   Outer-Iter.   Inner-Iter.     Column Row Layer    Maximum-Head-Change  Column Row Layer    Maximum-Flux-Residual          L2-NORM 
          0                 1           2             5    8     1       0.1311567970E+00       5    8    1         0.7167188457E+01      0.1638721703E+02
          0                 2           2             5    8     1      -0.1275759991E-01       5    8    1        -0.7167040895E+00      0.1638730432E+01
          0                 3           2             5    8     1       0.8687473737E-03       5    8    1         0.5016944835E-01      0.1147102617E+00
          0                 4           1             5    8     1      -0.3456826152E-04       5    8    1        -0.2051932650E-02      0.4691554466E-02

    ------------------------------------------------
       NWT REQUIRED            4 OUTER ITERATIONS 
       AND A TOTAL OF          7 INNER ITERATIONS.
    ------------------------------------------------

 NO OUTPUT CONTROL FOR STRESS PERIOD   30   TIME STEP   30



 STREAM LISTING     PERIOD     30   STEP       30

 LAYER ROW COL. STREAM  RCH.  FLOW INTO     FLOW TO   FLOW OUT OF   OVRLND.     DIRECT     STREAM       STREAM     STREAM     STREAM   STREAMBED  STREAMBED
                SEG.NO.  NO.  STRM. RCH.    AQUIFER    STRM. RCH.    RUNOFF     PRECIP       ET          HEAD       DEPTH      WIDTH   CONDCTNC.   GRADIENT

   1    1    1     1     1    3.7124E+01  2.9395E-01   3.6830E+01  0.000E+00  0.000E+00  0.000E+00  1.09436E+03  1.309E+00  1.516E+01  6.821E-02  1.436E+00
   1    2    2     1     2    3.6830E+01  4.5517E-01   3.6375E+01  0.000E+00  0.000E+00  0.000E+00  1.08936E+03  1.306E+00  1.510E+01  1.057E-01  1.435E+00
   1    3    3     1     3    3.6375E+01  3.8813E-01   3.5987E+01  0.000E+00  0.000E+00  0.000E+00  1.08372E+03  1.303E+00  1.503E+01  9.020E-02  1.434E+00
   1    3    4     1     4    3.5987E+01  3.5736E-01   3.5629E+01  0.000E+00  0.000E+00  0.000E+00  1.07871E+03  1.300E+00  1.497E+01  8.311E-02  1.433E+00
   1    4    5     2     1    3.3629E+01  3.4618E-01   3.3283E+01  0.000E+00  0.000E+00  0.000E+00  1.07337E+03  1.438E+00  1.200E+01  7.800E-02  1.479E+00
   1    5    6     2     2    3.3283E+01  2.6582E-01   3.3017E+01  0.000E+00  0.000E+00  0.000E+00  1.06794E+03  1.430E+00  1.200E+01  6.000E-02  1.477E+00
   1    6    6     2     3    3.3017E+01  2.6541E-01   3.2752E+01  0.000E+00  0.000E+00  0.000E+00  1.06322E+03  1.423E+00  1.200E+01  6.000E-02  1.474E+00
   1    7    6     2     4    3.2752E+01  2.6499E-01   3.2487E+01  0.000E+00  0.000E+00  0.000E+00  1.05849E+03  1.417E+00  1.200E+01  6.000E-02  1.472E+00
   1    8    6     2     5    3.2487E+01  2.6458E-01   3.2222E+01  0.000E+00  0.000E+00  0.000E+00  1.05377E+03  1.410E+00  1.200E+01  6.000E-02  1.470E+00
   1    3    5     3     1    2.0000E+00  2.8252E-01   1.7175E+00  0.000E+00  0.000E+00  0.000E+00  1.07555E+03  1.909E+00  9.636E+00  7.227E-02  1.955E+00
   1    3    6     3     2    1.7175E+00  2.4905E-01   1.4684E+00  0.000E+00  0.000E+00  0.000E+00  1.07264E+03  1.727E+00  8.909E+00  6.682E-02  1.864E+00
   1    3    7     3     3    1.4684E+00  1.9718E-01   1.2712E+00  0.000E+00  0.000E+00  0.000E+00  1.06987E+03  1.555E+00  8.218E+00  5.547E-02  1.777E+00
   1    4    8     3     4    1.2712E+00  2.2567E-01   1.0456E+00  0.000E+00  0.000E+00  0.000E+00  1.06682E+03  1.364E+00  7.455E+00  6.709E-02  1.682E+00
   1    5    8     3     5    1.0456E+00  1.5790E-01   8.8768E-01  0.000E+00  0.000E+00  0.000E+00  1.06362E+03  1.164E+00  6.655E+00  4.991E-02  1.582E+00
   1    6    8     3     6    8.8768E-01  5.5980E-02   8.3170E-01  0.000E+00  0.000E+00  0.000E+00  1.06158E+03  1.036E+00  6.145E+00  1.844E-02  1.518E+00
   1    5   10     4     1    1.0000E+01  9.0919E-02   9.9091E+00  0.000E+00  0.000E+00  0.000E+00  1.07836E+03  6.368E-01  1.000E+01  2.500E-02  1.212E+00
   1    5    9     4     2    9.9091E+00  1.8158E-01   9.7275E+00  0.000E+00  0.000E+00  0.000E+00  1.07154E+03  6.315E-01  1.000E+01  5.000E-02  1.211E+00
   1    6    8     4     3    9.7275E+00  1.2689E-01   9.6006E+00  0.000E+00  0.000E+00  0.000E+00  1.06381E+03  6.256E-01  1.000E+01  3.500E-02  1.209E+00
   1    6    8     5     1    1.0432E+01  2.2686E-01   1.0205E+01  0.000E+00  0.000E+00  0.000E+00  1.05868E+03  6.790E-01  1.542E+01  6.166E-02  1.226E+00
   1    7    7     5     2    1.0205E+01  2.7894E-01   9.9265E+00  0.000E+00  0.000E+00  0.000E+00  1.05417E+03  6.732E-01  1.519E+01  7.594E-02  1.224E+00
   1    8    7     5     3    9.9265E+00  1.9221E-01   9.7343E+00  0.000E+00  0.000E+00  0.000E+00  1.04992E+03  6.676E-01  1.497E+01  5.241E-02  1.223E+00
   1    8    6     5     4    9.7343E+00  1.3577E-01   9.5985E+00  0.000E+00  0.000E+00  0.000E+00  1.04691E+03  6.637E-01  1.482E+01  3.706E-02  1.221E+00
   1    9    6     6     1    4.1821E+01  2.7956E-01   4.1541E+01  0.000E+00  0.000E+00  0.000E+00  1.04439E+03  1.659E+00  1.200E+01  6.000E-02  1.553E+00
   1   10    7     6     2    4.1541E+01  2.7916E-01   4.1262E+01  0.000E+00  0.000E+00  0.000E+00  1.03983E+03  1.653E+00  1.200E+01  6.000E-02  1.551E+00
   1   11    7     6     3    4.1262E+01  2.7876E-01   4.0983E+01  0.000E+00  0.000E+00  0.000E+00  1.03528E+03  1.646E+00  1.200E+01  6.000E-02  1.549E+00
   1   12    7     6     4    4.0983E+01  2.7836E-01   4.0705E+01  0.000E+00  0.000E+00  0.000E+00  1.03073E+03  1.639E+00  1.200E+01  6.000E-02  1.546E+00
   1   13    7     6     5    4.0705E+01  2.8795E-02   4.0676E+01  0.000E+00  0.000E+00  0.000E+00  1.02754E+03  1.636E+00  1.200E+01  2.400E-02  3.999E-01
   1   14    9     7     1    1.5000E+02  1.4073E+00   1.4859E+02  0.000E+00  0.000E+00  0.000E+00  1.03987E+03  2.288E+00  5.529E+01  5.593E-01  8.388E-01
   1   13    8     7     2    1.4859E+02  2.0749E+00   1.4652E+02  0.000E+00  0.000E+00  0.000E+00  1.03478E+03  2.278E+00  5.525E+01  6.147E-01  1.125E+00
   1   13    7     7     3    1.4652E+02  1.8660E+00   1.4465E+02  0.000E+00  0.000E+00  0.000E+00  1.02969E+03  2.268E+00  5.520E+01  5.583E-01  1.114E+00
   1   13    6     8     1    1.8533E+02  1.3679E+00   1.8396E+02  0.000E+00  0.000E+00  0.000E+00  1.02492E+03  3.045E+00  4.415E+01  4.499E-01  1.013E+00
   1   13    5     8     2    1.8396E+02  5.4851E-01   1.8341E+02  0.000E+00  0.000E+00  0.000E+00  1.01866E+03  3.039E+00  4.407E+01  4.491E-01  4.071E-01
   1   13    4     8     3    1.8341E+02 -1.2111E+00   1.8462E+02  0.000E+00  0.000E+00  0.000E+00  1.01242E+03  3.041E+00  4.410E+01  4.494E+00 -8.984E-02
   1   13    3     8     4    1.8462E+02 -2.9773E+00   1.8760E+02  0.000E+00  0.000E+00  0.000E+00  1.00618E+03  3.054E+00  4.429E+01  4.513E+00 -2.199E-01
   1   13    2     8     5    1.8760E+02 -2.2811E+00   1.8988E+02  0.000E+00  0.000E+00  0.000E+00  9.99945E+02  3.070E+00  4.452E+01  4.537E+00 -1.676E-01
   1   13    1     8     6    1.8988E+02 -1.8328E+00   1.9171E+02  0.000E+00  0.000E+00  0.000E+00  9.94958E+02  3.083E+00  4.470E+01  2.733E+00 -2.235E-01
   1    8    6     9     1    8.8528E-07  0.0000E+00   8.8528E-07  0.000E+00  0.000E+00  0.000E+00  1.07875E+03  1.118E-04  4.000E+00  0.000E+00  1.000E+00
   1    8    5     9     2    8.8528E-07  0.0000E+00   8.8528E-07  0.000E+00  0.000E+00  0.000E+00  1.07825E+03  1.118E-04  4.000E+00  0.000E+00  1.000E+00





UNSATURATED ZONE PACKAGE VOLUMETRIC BUDGET FOR  TIME STEP    30 STRESS PERIOD   30
  ------------------------------------------------------------------------------



     CUMULATIVE VOLUMES      L**3       RATES FOR THIS TIME STEP      L**3/T
     ------------------                 ------------------------

           IN:                                      IN:
           ---                                      ---
        INFILTRATION =  6952052253.2047          INFILTRATION =           0.8475

          OUT:                                     OUT:
          ----                                     ----
              UZF ET =   893824227.4150                UZF ET =           8.3175
        UZF RECHARGE =  5410244876.9548          UZF RECHARGE =       0.0000E+00

            IN - OUT =   647983148.8348              IN - OUT =          -7.4700

          STORAGE:                                 STORAGE:
          --------                                 --------
      STORAGE CHANGE =   649011002.4685        STORAGE CHANGE =          -7.4700

 PERCENT DISCREPANCY IS DIFFERENCE BETWEEN IN-OUT MINUS CHANGE IN STORAGE
 DIVIDED BY THE AVERAGE OF IN AND OUT TIMES 100

 PERCENT DISCREPANCY =          -0.00     PERCENT DISCREPANCY =           0.00






1
  VOLUMETRIC BUDGET FOR AGRICULTURAL FIELDS AT  END OF TIME STEP   30, STRESS PERIOD  30
  ------------------------------------------------------------------------------

     CUMULATIVE VOLUMES      L**3       RATES FOR THIS TIME STEP      L**3/T
     ------------------                 ------------------------

           IN:                                      IN:
           ---                                      ---
               AG WELLS  =  6581219840.0000                 AG WELLS  =       2.2132E-07
      DIVERSION SEGMENTS =   306159744.0000        DIVERSION SEGMENTS =       8.8528E-07
           GW IRRIGATION =           0.0000             GW IRRIGATION =           0.0000
           SW IRRIGATION =           0.0000             SW IRRIGATION =           0.0000
        SYSTEM LOSSES GW =           0.0000          SYSTEM LOSSES GW =           0.0000
        SYSTEM LOSSES SW =           0.0000          SYSTEM LOSSES SW =           0.0000

                TOTAL IN =  6887379456.0000                  TOTAL IN =       1.1066E-06

          OUT:                                     OUT:
          ----                                     ----
               AG WELLS  =           0.0000                 AG WELLS  =           0.0000
      DIVERSION SEGMENTS =           0.0000        DIVERSION SEGMENTS =           0.0000
           GW IRRIGATION =  6581219840.0000             GW IRRIGATION =       2.2132E-07
           SW IRRIGATION =   306165312.0000             SW IRRIGATION =       8.8530E-07
        SYSTEM LOSSES GW =           0.0000          SYSTEM LOSSES GW =           0.0000
        SYSTEM LOSSES SW =           0.0000          SYSTEM LOSSES SW =           0.0000

               TOTAL OUT =  6887385088.0000                 TOTAL OUT =       1.1066E-06

                IN - OUT =       -5632.0000                  IN - OUT =      -1.7621E-11

     PERCENT DISCREPANCY =          -0.00         PERCENT DISCREPANCY =          -0.00



1
  VOLUMETRIC BUDGET FOR ENTIRE MODEL AT END OF TIME STEP   30, STRESS PERIOD  30
  ------------------------------------------------------------------------------

     CUMULATIVE VOLUMES      L**3       RATES FOR THIS TIME STEP      L**3/T
     ------------------                 ------------------------

           IN:                                      IN:
           ---                                      ---
             STORAGE     =  6134750208.0000               STORAGE     =          30.2788
       CONSTANT HEAD     =           0.0000         CONSTANT HEAD     =           0.0000
     HEAD DEP BOUNDS     =    22048036.0000       HEAD DEP BOUNDS     =           0.2906
      STREAM LEAKAGE     =   929387712.0000        STREAM LEAKAGE     =          13.7124
        UZF RECHARGE     =  5410244608.0000          UZF RECHARGE     =           0.0000
               GW ET     =           0.0000                 GW ET     =           0.0000
     SURFACE LEAKAGE     =           0.0000       SURFACE LEAKAGE     =           0.0000
           AG WELLS      =           0.0000             AG WELLS      =           0.0000

                TOTAL IN = 12496431104.0000                  TOTAL IN =          44.2818

          OUT:                                     OUT:
          ----                                     ----
             STORAGE     =  5166217216.0000               STORAGE     =          35.6897
       CONSTANT HEAD     =           0.0000         CONSTANT HEAD     =           0.0000
     HEAD DEP BOUNDS     =    21982744.0000       HEAD DEP BOUNDS     =           0.2899
      STREAM LEAKAGE     =   726891776.0000        STREAM LEAKAGE     =           8.3022
        UZF RECHARGE     =           0.0000          UZF RECHARGE     =           0.0000
               GW ET     =           0.0000                 GW ET     =           0.0000
     SURFACE LEAKAGE     =           0.0000       SURFACE LEAKAGE     =           0.0000
           AG WELLS      =  6581219840.0000             AG WELLS      =       2.2132E-07

               TOTAL OUT = 12496312320.0000                 TOTAL OUT =          44.2818

                IN - OUT =      118784.0000                  IN - OUT =       2.2888E-05

     PERCENT DISCREPANCY =           0.00         PERCENT DISCREPANCY =           0.00






         TIME SUMMARY AT END OF TIME STEP   30 IN STRESS PERIOD   30
                    SECONDS     MINUTES      HOURS       DAYS        YEARS
                    -----------------------------------------------------------
   TIME STEP LENGTH  87667.      1461.1      24.352      1.0147     2.77799E-03
 STRESS PERIOD TIME 2.63000E+06  43833.      730.56      30.440     8.33397E-02
         TOTAL TIME 7.63565E+07 1.27261E+06  21210.      883.76      2.4196    
1
1
                            STRESS PERIOD NO.   31, LENGTH =   2630000.    
                            -----------------------------------------------

                              NUMBER OF TIME STEPS =    30

                               MULTIPLIER FOR DELT =     1.000

                            INITIAL TIME STEP SIZE =   87666.66    

 REUSING NON-PARAMETER GHB CELLS FROM LAST STRESS PERIOD

      2 GHB CELLS

 REUSING STREAM SEGMENT DATA FROM LAST STRESS PERIOD



            AREAL INFILTRATION RATE
 READING ON UNIT   19 WITH FORMAT: (FREE)              

            1           2           3           4           5           6           7           8           9          10
 ........................................................................................................................
   1   1.0000E-10  2.0000E-10   0.000       0.000       0.000       0.000       0.000       0.000       0.000       0.000    
   2   2.0000E-10  1.0000E-10  2.0000E-10   0.000       0.000      8.0000E-10  8.0000E-10  5.0000E-10   0.000       0.000    
   3    0.000      5.0000E-10  1.0000E-10  1.0000E-10  8.0000E-10  8.0000E-10  5.0000E-10  5.0000E-10   0.000       0.000    
   4   8.0000E-10  5.0000E-10  1.0000E-10  1.0000E-10  1.0000E-10  1.0000E-10  1.0000E-10  1.0000E-10  2.0000E-10   0.000    
   5   8.0000E-10  5.0000E-10  1.0000E-10  1.0000E-10  1.0000E-10  1.0000E-10  1.0000E-10  1.0000E-10  1.0000E-10  1.0000E-10
   6   8.0000E-10  5.0000E-10  5.0000E-10  2.0000E-10  2.0000E-10  1.0000E-10  1.0000E-10  1.0000E-10  1.0000E-10  5.0000E-10
   7   8.0000E-10  5.0000E-10  5.0000E-10  2.0000E-10  2.0000E-10  1.0000E-10  1.0000E-10  2.0000E-10  2.0000E-10   0.000    
   8    0.000      5.0000E-10  5.0000E-10  2.0000E-10  2.0000E-10  1.0000E-10  1.0000E-10  2.0000E-10  5.0000E-10   0.000    
   9    0.000      5.0000E-10  5.0000E-10  2.0000E-10  2.0000E-10  1.0000E-10  1.0000E-10  2.0000E-10  5.0000E-10   0.000    
  10    0.000      5.0000E-10  5.0000E-10  2.0000E-10  2.0000E-10  1.0000E-10  1.0000E-10  2.0000E-10  5.0000E-10  8.0000E-10
  11    0.000      1.0000E-10  1.0000E-10  1.0000E-10  1.0000E-10  1.0000E-10  1.0000E-10  2.0000E-10  5.0000E-10   0.000    
  12   1.0000E-10  1.0000E-10  1.0000E-10  1.0000E-10  1.0000E-10  1.0000E-10  1.0000E-10  1.0000E-10  2.0000E-10   0.000    
  13   1.0000E-10  1.0000E-10  2.0000E-10  2.0000E-10  2.0000E-10  2.0000E-10  2.0000E-10  1.0000E-10  1.0000E-10   0.000    
  14    0.000      2.0000E-10  5.0000E-10  5.0000E-10  5.0000E-10  5.0000E-10  5.0000E-10  2.0000E-10  1.0000E-10   0.000    
  15    0.000       0.000      8.0000E-10  8.0000E-10  8.0000E-10  8.0000E-10   0.000       0.000       0.000       0.000    

                  ET RATE =  1.500000E-07

 USING ET EXTINCTION DEPTH FROM PREVIOUS STRESS PERIOD. CURRENT PERIOD IS:      31

 USING EXTINCTION WATER CONTENT FROM PREVIOUS STRESS PERIOD. CURRENT PERIOD IS:      31

 USING AIR ENTRY PRESSURE FROM PREVIOUS STRESS PERIOD. CURRENT PERIOD IS:      31

 USING ROOT PRESSURE HEAD FROM PREVIOUS STRESS PERIOD. CURRENT PERIOD IS:      31

 USING ROOT ACTIVITY FROM PREVIOUS STRESS PERIOD. CURRENT PERIOD IS:      31

 PROCESSING AG STRESS PERIOD DATA

 READING AG STRESS PERIOD DATA

 READING IRRIGATION SEGMENT

 READING IRRIGATION WELL

 READING SUPPLEMENTAL WELL

 END PROCESSING AG STRESS PERIOD DATA OPTIONS
 
 SOLVING FOR HEAD 
                                                   Max.-Head-Change                         Max.-Flux-Residual
  Residual-Control   Outer-Iter.   Inner-Iter.     Column Row Layer    Maximum-Head-Change  Column Row Layer    Maximum-Flux-Residual          L2-NORM 
          0                 1           2             5    8     1       0.1248296905E+00       5    8    1         0.6815549742E+01      0.1574447915E+02
          0                 2           2             5    8     1      -0.5063761626E-01       5    8    1        -0.2800870450E+01      0.6588157583E+01
          0                 3           2             4    7     1       0.4153761428E-01       5    8    1         0.2315389926E+01      0.5666943854E+01
          0                 4           2             4    7     1      -0.1652829576E-02       5    8    1        -0.9468551432E-01      0.2331274694E+00
          0                 5           1             4    7     1       0.2038009058E-04       5    8    1         0.1198970340E-02      0.3171135572E-02

    ------------------------------------------------
       NWT REQUIRED            5 OUTER ITERATIONS 
       AND A TOTAL OF          9 INNER ITERATIONS.
    ------------------------------------------------

 NO OUTPUT CONTROL FOR STRESS PERIOD   31   TIME STEP    1
 
 SOLVING FOR HEAD 
                                                   Max.-Head-Change                         Max.-Flux-Residual
  Residual-Control   Outer-Iter.   Inner-Iter.     Column Row Layer    Maximum-Head-Change  Column Row Layer    Maximum-Flux-Residual          L2-NORM 
          0                 1           2             5    8     1       0.1189087709E+00       5    8    1         0.6486739770E+01      0.1514231070E+02
          0                 2           2             4    7     1      -0.1869784676E+01       5    8    1        -0.1006486612E+03      0.2462297723E+03
          0                 3           2             4    7     1       0.1272894800E+00       5    8    1         0.7043288510E+01      0.1724978000E+02
          0                 4           2             4    7     1      -0.5065059359E-02       5    8    1        -0.2879614630E+00      0.7067189653E+00
          0                 5           1             4    7     1       0.6245422681E-04       4    8    1         0.3642800492E-02      0.9181681843E-02

    ------------------------------------------------
       NWT REQUIRED            5 OUTER ITERATIONS 
       AND A TOTAL OF          9 INNER ITERATIONS.
    ------------------------------------------------

 NO OUTPUT CONTROL FOR STRESS PERIOD   31   TIME STEP    2
 
 SOLVING FOR HEAD 
                                                   Max.-Head-Change                         Max.-Flux-Residual
  Residual-Control   Outer-Iter.   Inner-Iter.     Column Row Layer    Maximum-Head-Change  Column Row Layer    Maximum-Flux-Residual          L2-NORM 
          0                 1           2             5    8     1       0.1671399279E+00       5    8    1         0.9144588097E+01      0.2063346145E+02
          0                 2           2             5    8     1      -0.8437308317E-01       5    8    1        -0.4664434919E+01      0.1098430685E+02
          0                 3           2             5    8     1       0.1719308501E-01       5    8    1         0.9743686849E+00      0.2351911173E+01
          0                 4           2             5    8     1      -0.6841301190E-03       5    8    1        -0.3985180948E-01      0.9631786669E-01
          0                 5           1             5    8     1       0.8435618970E-05       5    8    1         0.5050451402E-03      0.1240921089E-02

    ------------------------------------------------
       NWT REQUIRED            5 OUTER ITERATIONS 
       AND A TOTAL OF          9 INNER ITERATIONS.
    ------------------------------------------------

 NO OUTPUT CONTROL FOR STRESS PERIOD   31   TIME STEP    3
 
 SOLVING FOR HEAD 
                                                   Max.-Head-Change                         Max.-Flux-Residual
  Residual-Control   Outer-Iter.   Inner-Iter.     Column Row Layer    Maximum-Head-Change  Column Row Layer    Maximum-Flux-Residual          L2-NORM 
          0                 1           2             5    8     1       0.1605557400E+00       5    8    1         0.8777313990E+01      0.1999316883E+02
          0                 2           2             5    8     1      -0.1561736763E-01       5    8    1        -0.8777088308E+00      0.1999201488E+01
          0                 3           2             5    8     1       0.1063488042E-02       5    8    1         0.6143985818E-01      0.1399442543E+00
          0                 4           1             5    8     1      -0.4231717012E-04       5    8    1        -0.2512892718E-02      0.5723671521E-02

    ------------------------------------------------
       NWT REQUIRED            4 OUTER ITERATIONS 
       AND A TOTAL OF          7 INNER ITERATIONS.
    ------------------------------------------------

 NO OUTPUT CONTROL FOR STRESS PERIOD   31   TIME STEP    4
 
 SOLVING FOR HEAD 
     PET DIFF ERROR     6    4    0.2245436895E-08    0.1500000053E-06
     PET DIFF ERROR     6    5    0.2245436923E-08    0.1500000053E-06
     PET DIFF ERROR     7    4    0.2245443498E-08    0.1500000053E-06
     PET DIFF ERROR     7    5    0.2245436923E-08    0.1500000053E-06
     PET DIFF ERROR     8    4    0.2245440196E-08    0.1500000053E-06
     PET DIFF ERROR     8    5    0.2245440186E-08    0.1500000053E-06
                                                   Max.-Head-Change                         Max.-Flux-Residual
  Residual-Control   Outer-Iter.   Inner-Iter.     Column Row Layer    Maximum-Head-Change  Column Row Layer    Maximum-Flux-Residual          L2-NORM 
          0                 1           2             5    8     1       0.1527511631E+00       5    8    1         0.8343213845E+01      0.1920539058E+02
     PET DIFF ERROR     6    4    0.2245436895E-08    0.1500000053E-06
     PET DIFF ERROR     6    5    0.2245436923E-08    0.1500000053E-06
     PET DIFF ERROR     7    4    0.2245443498E-08    0.1500000053E-06
     PET DIFF ERROR     7    5    0.2245436923E-08    0.1500000053E-06
     PET DIFF ERROR     8    4    0.2245440196E-08    0.1500000053E-06
     PET DIFF ERROR     8    5    0.2245440186E-08    0.1500000053E-06
          0                 2           2             5    8     1      -0.1485821920E-01       5    8    1        -0.8343004693E+00      0.1920435352E+01
     PET DIFF ERROR     6    4    0.2245436895E-08    0.1500000053E-06
     PET DIFF ERROR     6    5    0.2245436923E-08    0.1500000053E-06
     PET DIFF ERROR     7    4    0.2245443498E-08    0.1500000053E-06
     PET DIFF ERROR     7    5    0.2245436923E-08    0.1500000053E-06
     PET DIFF ERROR     8    4    0.2245440196E-08    0.1500000053E-06
     PET DIFF ERROR     8    5    0.2245440186E-08    0.1500000053E-06
          0                 3           2             5    8     1       0.1011792613E-02       5    8    1         0.5840125592E-01      0.1344306197E+00
     PET DIFF ERROR     6    4    0.2245436895E-08    0.1500000053E-06
     PET DIFF ERROR     6    5    0.2245436923E-08    0.1500000053E-06
     PET DIFF ERROR     7    4    0.2245443498E-08    0.1500000053E-06
     PET DIFF ERROR     7    5    0.2245436923E-08    0.1500000053E-06
     PET DIFF ERROR     8    4    0.2245440196E-08    0.1500000053E-06
     PET DIFF ERROR     8    5    0.2245440186E-08    0.1500000053E-06
          0                 4           1             5    8     1      -0.4026016122E-04       5    8    1        -0.2388613774E-02      0.5498171226E-02

    ------------------------------------------------
       NWT REQUIRED            4 OUTER ITERATIONS 
       AND A TOTAL OF          7 INNER ITERATIONS.
    ------------------------------------------------

 NO OUTPUT CONTROL FOR STRESS PERIOD   31   TIME STEP    5
     PET DIFF ERROR     6    4    0.2245436895E-08    0.1500000053E-06
     PET DIFF ERROR     6    5    0.2245436923E-08    0.1500000053E-06
     PET DIFF ERROR     7    4    0.2245443498E-08    0.1500000053E-06
     PET DIFF ERROR     7    5    0.2245436923E-08    0.1500000053E-06
     PET DIFF ERROR     8    4    0.2245440196E-08    0.1500000053E-06
     PET DIFF ERROR     8    5    0.2245440186E-08    0.1500000053E-06
 
 SOLVING FOR HEAD 
                                                   Max.-Head-Change                         Max.-Flux-Residual
  Residual-Control   Outer-Iter.   Inner-Iter.     Column Row Layer    Maximum-Head-Change  Column Row Layer    Maximum-Flux-Residual          L2-NORM 
          0                 1           2             5    8     1       0.1454545859E+00       5    8    1         0.7937651602E+01      0.1846596469E+02
          0                 2           2             5    8     1      -0.7570062458E-01       5    8    1        -0.4182413825E+01      0.9944852085E+01
          0                 3           2             4    7     1       0.2312425920E-01       5    8    1         0.1301959488E+01      0.3168282938E+01
          0                 4           2             4    7     1      -0.9201383941E-03       5    8    1        -0.5325035385E-01      0.1299556632E+00
          0                 5           1             4    7     1       0.1134570157E-04       5    8    1         0.6748458991E-03      0.1707230613E-02

    ------------------------------------------------
       NWT REQUIRED            5 OUTER ITERATIONS 
       AND A TOTAL OF          9 INNER ITERATIONS.
    ------------------------------------------------

 NO OUTPUT CONTROL FOR STRESS PERIOD   31   TIME STEP    6
 
 SOLVING FOR HEAD 
                                                   Max.-Head-Change                         Max.-Flux-Residual
  Residual-Control   Outer-Iter.   Inner-Iter.     Column Row Layer    Maximum-Head-Change  Column Row Layer    Maximum-Flux-Residual          L2-NORM 
          0                 1           2             5    8     1       0.1399068042E+00       5    8    1         0.7629019139E+01      0.1791485330E+02
          0                 2           2             5    8     1      -0.1360884532E-01       5    8    1        -0.7628836157E+00      0.1791539980E+01
          0                 3           2             5    8     1       0.9267145115E-03       5    8    1         0.5340204926E-01      0.1254073482E+00
          0                 4           1             5    8     1      -0.3687482584E-04       5    8    1        -0.2184146052E-02      0.5129088828E-02

    ------------------------------------------------
       NWT REQUIRED            4 OUTER ITERATIONS 
       AND A TOTAL OF          7 INNER ITERATIONS.
    ------------------------------------------------

 NO OUTPUT CONTROL FOR STRESS PERIOD   31   TIME STEP    7
 
 SOLVING FOR HEAD 
                                                   Max.-Head-Change                         Max.-Flux-Residual
  Residual-Control   Outer-Iter.   Inner-Iter.     Column Row Layer    Maximum-Head-Change  Column Row Layer    Maximum-Flux-Residual          L2-NORM 
          0                 1           2             5    8     1       0.1334430420E+00       5    8    1         0.7270209602E+01      0.1725424498E+02
          0                 2           2             4    7     1      -0.1871410005E+01       5    8    1        -0.1007270040E+03      0.2464314199E+03
          0                 3           2             4    7     1       0.1274168778E+00       5    8    1         0.7048793875E+01      0.1724614908E+02
          0                 4           2             4    7     1      -0.5070129023E-02       5    8    1        -0.2881880962E+00      0.7053286941E+00
          0                 5           1             4    7     1       0.6251673781E-04       4    8    1         0.3645363046E-02      0.8961751759E-02

    ------------------------------------------------
       NWT REQUIRED            5 OUTER ITERATIONS 
       AND A TOTAL OF          9 INNER ITERATIONS.
    ------------------------------------------------

 NO OUTPUT CONTROL FOR STRESS PERIOD   31   TIME STEP    8
 
 SOLVING FOR HEAD 
                                                   Max.-Head-Change                         Max.-Flux-Residual
  Residual-Control   Outer-Iter.   Inner-Iter.     Column Row Layer    Maximum-Head-Change  Column Row Layer    Maximum-Flux-Residual          L2-NORM 
          0                 1           2             5    8     1       0.1811488354E+00       5    8    1         0.9899102222E+01      0.2263355611E+02
          0                 2           2             5    8     1      -0.8573655253E-01       5    8    1        -0.4739880986E+01      0.1118589085E+02
          0                 3           2             5    8     1       0.1728607857E-01       5    8    1         0.9796500380E+00      0.2365672178E+01
          0                 4           2             5    8     1      -0.6878303972E-03       5    8    1        -0.4006781563E-01      0.9687892631E-01
          0                 5           1             5    8     1       0.8481244965E-05       5    8    1         0.5077825999E-03      0.1247861929E-02

    ------------------------------------------------
       NWT REQUIRED            5 OUTER ITERATIONS 
       AND A TOTAL OF          9 INNER ITERATIONS.
    ------------------------------------------------

 NO OUTPUT CONTROL FOR STRESS PERIOD   31   TIME STEP    9
 
 SOLVING FOR HEAD 
                                                   Max.-Head-Change                         Max.-Flux-Residual
  Residual-Control   Outer-Iter.   Inner-Iter.     Column Row Layer    Maximum-Head-Change  Column Row Layer    Maximum-Flux-Residual          L2-NORM 
          0                 1           2             5    8     1       0.1740802400E+00       5    8    1         0.9505216747E+01      0.2194384010E+02
          0                 2           2             5    8     1      -0.1693286049E-01       5    8    1        -0.9504940955E+00      0.2194244018E+01
          0                 3           2             5    8     1       0.1153068935E-02       5    8    1         0.6653487630E-01      0.1535964897E+00
          0                 4           1             5    8     1      -0.4588167409E-04       5    8    1        -0.2721279029E-02      0.6281994207E-02

    ------------------------------------------------
       NWT REQUIRED            4 OUTER ITERATIONS 
       AND A TOTAL OF          7 INNER ITERATIONS.
    ------------------------------------------------

 NO OUTPUT CONTROL FOR STRESS PERIOD   31   TIME STEP   10
 
 SOLVING FOR HEAD 
     PET DIFF ERROR     6    4    0.2245443498E-08    0.1500000053E-06
     PET DIFF ERROR     6    5    0.2245436859E-08    0.1500000053E-06
     PET DIFF ERROR     7    4    0.2245443484E-08    0.1500000053E-06
     PET DIFF ERROR     7    5    0.2245436909E-08    0.1500000053E-06
     PET DIFF ERROR     8    4    0.2245443484E-08    0.1500000053E-06
     PET DIFF ERROR     8    5    0.2245440154E-08    0.1500000053E-06
                                                   Max.-Head-Change                         Max.-Flux-Residual
  Residual-Control   Outer-Iter.   Inner-Iter.     Column Row Layer    Maximum-Head-Change  Column Row Layer    Maximum-Flux-Residual          L2-NORM 
          0                 1           2             5    8     1       0.1658174860E+00       5    8    1         0.9045964765E+01      0.2111009383E+02
     PET DIFF ERROR     6    4    0.2245443498E-08    0.1500000053E-06
     PET DIFF ERROR     6    5    0.2245436859E-08    0.1500000053E-06
     PET DIFF ERROR     7    4    0.2245443484E-08    0.1500000053E-06
     PET DIFF ERROR     7    5    0.2245436909E-08    0.1500000053E-06
     PET DIFF ERROR     8    4    0.2245443484E-08    0.1500000053E-06
     PET DIFF ERROR     8    5    0.2245440154E-08    0.1500000053E-06
          0                 2           2             5    8     1      -0.1612914898E-01       5    8    1        -0.9045709011E+00      0.2110883855E+01
     PET DIFF ERROR     6    4    0.2245443498E-08    0.1500000053E-06
     PET DIFF ERROR     6    5    0.2245436859E-08    0.1500000053E-06
     PET DIFF ERROR     7    4    0.2245443484E-08    0.1500000053E-06
     PET DIFF ERROR     7    5    0.2245436909E-08    0.1500000053E-06
     PET DIFF ERROR     8    4    0.2245443484E-08    0.1500000053E-06
     PET DIFF ERROR     8    5    0.2245440154E-08    0.1500000053E-06
          0                 3           2             5    8     1       0.1098338876E-02       5    8    1         0.6332023236E-01      0.1477613697E+00
     PET DIFF ERROR     6    4    0.2245443498E-08    0.1500000053E-06
     PET DIFF ERROR     6    5    0.2245436859E-08    0.1500000053E-06
     PET DIFF ERROR     7    4    0.2245443484E-08    0.1500000053E-06
     PET DIFF ERROR     7    5    0.2245436909E-08    0.1500000053E-06
     PET DIFF ERROR     8    4    0.2245443484E-08    0.1500000053E-06
     PET DIFF ERROR     8    5    0.2245440154E-08    0.1500000053E-06
          0                 4           1             5    8     1      -0.4370391499E-04       5    8    1        -0.2589799987E-02      0.6043341297E-02

    ------------------------------------------------
       NWT REQUIRED            4 OUTER ITERATIONS 
       AND A TOTAL OF          7 INNER ITERATIONS.
    ------------------------------------------------

 NO OUTPUT CONTROL FOR STRESS PERIOD   31   TIME STEP   11
     PET DIFF ERROR     6    4    0.2245443498E-08    0.1500000053E-06
     PET DIFF ERROR     6    5    0.2245436859E-08    0.1500000053E-06
     PET DIFF ERROR     7    4    0.2245443484E-08    0.1500000053E-06
     PET DIFF ERROR     7    5    0.2245436909E-08    0.1500000053E-06
     PET DIFF ERROR     8    4    0.2245443484E-08    0.1500000053E-06
     PET DIFF ERROR     8    5    0.2245440154E-08    0.1500000053E-06
 
 SOLVING FOR HEAD 
                                                   Max.-Head-Change                         Max.-Flux-Residual
  Residual-Control   Outer-Iter.   Inner-Iter.     Column Row Layer    Maximum-Head-Change  Column Row Layer    Maximum-Flux-Residual          L2-NORM 
          0                 1           2             5    8     1       0.1580869282E+00       5    8    1         0.8616594992E+01      0.2032675078E+02
          0                 2           2             5    8     1      -0.7693016439E-01       5    8    1        -0.4250303827E+01      0.1013149587E+02
          0                 3           2             4    7     1       0.2322506604E-01       5    8    1         0.1306711898E+01      0.3181035807E+01
          0                 4           2             4    7     1      -0.9241496162E-03       5    8    1        -0.5344472584E-01      0.1304758558E+00
          0                 5           1             4    7     1       0.1139516160E-04       5    8    1         0.6773091818E-03      0.1713311863E-02

    ------------------------------------------------
       NWT REQUIRED            5 OUTER ITERATIONS 
       AND A TOTAL OF          9 INNER ITERATIONS.
    ------------------------------------------------

 NO OUTPUT CONTROL FOR STRESS PERIOD   31   TIME STEP   12
 
 SOLVING FOR HEAD 
                                                   Max.-Head-Change                         Max.-Flux-Residual
  Residual-Control   Outer-Iter.   Inner-Iter.     Column Row Layer    Maximum-Head-Change  Column Row Layer    Maximum-Flux-Residual          L2-NORM 
          0                 1           2             5    8     1       0.1521276989E+00       5    8    1         0.8285404565E+01      0.1973245006E+02
          0                 2           2             5    8     1      -0.1479755265E-01       5    8    1        -0.8285180896E+00      0.1973134199E+01
          0                 3           2             5    8     1       0.1007661646E-02       5    8    1         0.5799650290E-01      0.1381182993E+00
          0                 4           1             5    8     1      -0.4009578514E-04       5    8    1        -0.2372059278E-02      0.5648925214E-02

    ------------------------------------------------
       NWT REQUIRED            4 OUTER ITERATIONS 
       AND A TOTAL OF          7 INNER ITERATIONS.
    ------------------------------------------------

 NO OUTPUT CONTROL FOR STRESS PERIOD   31   TIME STEP   13
 
 SOLVING FOR HEAD 
                                                   Max.-Head-Change                         Max.-Flux-Residual
  Residual-Control   Outer-Iter.   Inner-Iter.     Column Row Layer    Maximum-Head-Change  Column Row Layer    Maximum-Flux-Residual          L2-NORM 
          0                 1           2             5    8     1       0.1452739276E+00       5    8    1         0.7905229433E+01      0.1903178282E+02
          0                 2           2             4    7     1      -0.1872915955E+01       5    8    1        -0.1007905022E+03      0.2466044554E+03
          0                 3           2             4    7     1       0.1275193874E+00       5    8    1         0.7053254044E+01      0.1725826378E+02
          0                 4           2             4    7     1      -0.5074208140E-02       5    8    1        -0.2883717725E+00      0.7058220704E+00
          0                 5           1             4    7     1       0.6256703482E-04       4    8    1         0.3648081883E-02      0.8967062658E-02

    ------------------------------------------------
       NWT REQUIRED            5 OUTER ITERATIONS 
       AND A TOTAL OF          9 INNER ITERATIONS.
    ------------------------------------------------

 NO OUTPUT CONTROL FOR STRESS PERIOD   31   TIME STEP   14
 
 SOLVING FOR HEAD 
                                                   Max.-Head-Change                         Max.-Flux-Residual
  Residual-Control   Outer-Iter.   Inner-Iter.     Column Row Layer    Maximum-Head-Change  Column Row Layer    Maximum-Flux-Residual          L2-NORM 
          0                 1           2             5    8     1       0.1925942520E+00       5    8    1         0.1051295124E+02      0.2431208780E+02
          0                 2           2             5    8     1      -0.8685076324E-01       5    8    1        -0.4801261261E+01      0.1135890772E+02
          0                 3           2             5    8     1       0.1736211330E-01       5    8    1         0.9839467728E+00      0.2377570538E+01
          0                 4           2             5    8     1      -0.6908558704E-03       5    8    1        -0.4024355101E-01      0.9736445520E-01
          0                 5           1             5    8     1       0.8518550722E-05       5    8    1         0.5100097226E-03      0.1253678620E-02

    ------------------------------------------------
       NWT REQUIRED            5 OUTER ITERATIONS 
       AND A TOTAL OF          9 INNER ITERATIONS.
    ------------------------------------------------

 NO OUTPUT CONTROL FOR STRESS PERIOD   31   TIME STEP   15
 
 SOLVING FOR HEAD 
                                                   Max.-Head-Change                         Max.-Flux-Residual
  Residual-Control   Outer-Iter.   Inner-Iter.     Column Row Layer    Maximum-Head-Change  Column Row Layer    Maximum-Flux-Residual          L2-NORM 
          0                 1           2             5    8     1       0.1851752665E+00       5    8    1         0.1009990280E+02      0.2358744823E+02
          0                 2           2             5    8     1      -0.1801204158E-01       5    8    1        -0.1009958356E+01      0.2358586359E+01
          0                 3           2             5    8     1       0.1226557777E-02       5    8    1         0.7069741747E-01      0.1650999792E+00
          0                 4           1             5    8     1      -0.4880586103E-04       5    8    1        -0.2891527008E-02      0.6752455149E-02

    ------------------------------------------------
       NWT REQUIRED            4 OUTER ITERATIONS 
       AND A TOTAL OF          7 INNER ITERATIONS.
    ------------------------------------------------

 NO OUTPUT CONTROL FOR STRESS PERIOD   31   TIME STEP   16
 
 SOLVING FOR HEAD 
     PET DIFF ERROR     6    4    0.2245436874E-08    0.1500000053E-06
     PET DIFF ERROR     6    5    0.2245436859E-08    0.1500000053E-06
     PET DIFF ERROR     7    4    0.2245443449E-08    0.1500000053E-06
     PET DIFF ERROR     7    5    0.2245436874E-08    0.1500000053E-06
     PET DIFF ERROR     8    4    0.2245436909E-08    0.1500000053E-06
     PET DIFF ERROR     8    5    0.2245440204E-08    0.1500000053E-06
                                                   Max.-Head-Change                         Max.-Flux-Residual
  Residual-Control   Outer-Iter.   Inner-Iter.     Column Row Layer    Maximum-Head-Change  Column Row Layer    Maximum-Flux-Residual          L2-NORM 
          0                 1           2             5    8     1       0.1765797781E+00       5    8    1         0.9622468038E+01      0.2272160170E+02
     PET DIFF ERROR     6    4    0.2245436874E-08    0.1500000053E-06
     PET DIFF ERROR     6    5    0.2245436859E-08    0.1500000053E-06
     PET DIFF ERROR     7    4    0.2245443449E-08    0.1500000053E-06
     PET DIFF ERROR     7    5    0.2245436874E-08    0.1500000053E-06
     PET DIFF ERROR     8    4    0.2245436909E-08    0.1500000053E-06
     PET DIFF ERROR     8    5    0.2245440204E-08    0.1500000053E-06
          0                 2           2             5    8     1      -0.1717596830E-01       5    8    1        -0.9622171773E+00      0.2272018288E+01
     PET DIFF ERROR     6    4    0.2245436874E-08    0.1500000053E-06
     PET DIFF ERROR     6    5    0.2245436859E-08    0.1500000053E-06
     PET DIFF ERROR     7    4    0.2245443449E-08    0.1500000053E-06
     PET DIFF ERROR     7    5    0.2245436874E-08    0.1500000053E-06
     PET DIFF ERROR     8    4    0.2245436909E-08    0.1500000053E-06
     PET DIFF ERROR     8    5    0.2245440204E-08    0.1500000053E-06
          0                 3           2             5    8     1       0.1169623960E-02       5    8    1         0.6735551176E-01      0.1590403231E+00
     PET DIFF ERROR     6    4    0.2245436874E-08    0.1500000053E-06
     PET DIFF ERROR     6    5    0.2245436859E-08    0.1500000053E-06
     PET DIFF ERROR     7    4    0.2245443449E-08    0.1500000053E-06
     PET DIFF ERROR     7    5    0.2245436874E-08    0.1500000053E-06
     PET DIFF ERROR     8    4    0.2245436909E-08    0.1500000053E-06
     PET DIFF ERROR     8    5    0.2245440204E-08    0.1500000053E-06
          0                 4           1             5    8     1      -0.4654041258E-04       5    8    1        -0.2754842964E-02      0.6504616478E-02

    ------------------------------------------------
       NWT REQUIRED            4 OUTER ITERATIONS 
       AND A TOTAL OF          7 INNER ITERATIONS.
    ------------------------------------------------

 NO OUTPUT CONTROL FOR STRESS PERIOD   31   TIME STEP   17
     PET DIFF ERROR     6    4    0.2245436874E-08    0.1500000053E-06
     PET DIFF ERROR     6    5    0.2245436859E-08    0.1500000053E-06
     PET DIFF ERROR     7    4    0.2245443449E-08    0.1500000053E-06
     PET DIFF ERROR     7    5    0.2245436874E-08    0.1500000053E-06
     PET DIFF ERROR     8    4    0.2245436909E-08    0.1500000053E-06
     PET DIFF ERROR     8    5    0.2245440204E-08    0.1500000053E-06
 
 SOLVING FOR HEAD 
                                                   Max.-Head-Change                         Max.-Flux-Residual
  Residual-Control   Outer-Iter.   Inner-Iter.     Column Row Layer    Maximum-Head-Change  Column Row Layer    Maximum-Flux-Residual          L2-NORM 
          0                 1           2             5    8     1       0.4582906007E+00       5    8    1         0.2515901390E+02      0.3207352735E+02
          0                 2           2             5    8     1       0.1382729149E+00       5    8    1         0.7741653567E+01      0.1213785340E+02
          0                 3           2             5    8     1       0.7965416521E-01       5    8    1         0.4355540815E+01      0.5240229897E+01
          0                 4           2             5    8     1       0.3503060937E-01       5    8    1         0.1933859936E+01      0.1937356392E+01
          0                 5           2             5    8     1       0.1540584535E-01       5    8    1         0.8497605961E+00      0.8497733185E+00
          0                 6           2             5    8     1       0.6775221645E-02       5    8    1         0.3737057665E+00      0.3737118929E+00
          0                 7           1             5    8     1       0.2979624322E-02       5    8    1         0.1643495209E+00      0.1643522193E+00
          0                 8           1             5    8     1       0.1310386854E-02       5    8    1         0.7227807769E-01      0.7227926470E-01
          0                 9           1             5    8     1       0.5762853105E-03       5    8    1         0.3178664665E-01      0.3178716850E-01
          0                10           1             5    8     1       0.2534402423E-03       5    8    1         0.1397921495E-01      0.1397944441E-01
                                                   Max.-Head-Change                         Max.-Flux-Residual
  Residual-Control   Outer-Iter.   Inner-Iter.     Column Row Layer    Maximum-Head-Change  Column Row Layer    Maximum-Flux-Residual          L2-NORM 
          0                11           1             5    8     1       0.1114586042E-03       5    8    1         0.6147815615E-02      0.6147916528E-02
          0                12           1             5    8     1       0.4901755325E-04       5    8    1         0.2703702337E-02      0.2703746780E-02

    ------------------------------------------------
       NWT REQUIRED           12 OUTER ITERATIONS 
       AND A TOTAL OF         18 INNER ITERATIONS.
    ------------------------------------------------

 NO OUTPUT CONTROL FOR STRESS PERIOD   31   TIME STEP   18
 
 SOLVING FOR HEAD 
                                                   Max.-Head-Change                         Max.-Flux-Residual
  Residual-Control   Outer-Iter.   Inner-Iter.     Column Row Layer    Maximum-Head-Change  Column Row Layer    Maximum-Flux-Residual          L2-NORM 
          0                 1           2             5    8     1       0.4587781265E+00       5    8    1         0.2515386926E+02      0.3190251032E+02
          0                 2           2             5    8     1       0.1982817218E+00       5    8    1         0.1095438797E+02      0.1112869107E+02
          0                 3           2             5    8     1       0.8569408659E-01       5    8    1         0.4726360336E+01      0.4728442568E+01
          0                 4           2             5    8     1       0.3703573672E-01       5    8    1         0.2043143261E+01      0.2043154149E+01
          0                 5           2             5    8     1       0.1600631447E-01       5    8    1         0.8830111663E+00      0.8830150266E+00
          0                 6           2             5    8     1       0.6917701804E-02       5    8    1         0.3816256421E+00      0.3816272272E+00
          0                 7           1             5    8     1       0.2989732868E-02       5    8    1         0.1649334122E+00      0.1649340974E+00
          0                 8           1             5    8     1       0.1292120329E-02       5    8    1         0.7128191883E-01      0.7128221486E-01
          0                 9           1             5    8     1       0.5584361738E-03       5    8    1         0.3080704612E-01      0.3080717398E-01
          0                10           1             5    8     1       0.2413482372E-03       5    8    1         0.1331437207E-01      0.1331442731E-01
                                                   Max.-Head-Change                         Max.-Flux-Residual
  Residual-Control   Outer-Iter.   Inner-Iter.     Column Row Layer    Maximum-Head-Change  Column Row Layer    Maximum-Flux-Residual          L2-NORM 
          0                11           1             5    8     1       0.1043073046E-03       5    8    1         0.5754284143E-02      0.5754308089E-02
          0                12           1             5    8     1       0.4508014576E-04       5    8    1         0.2486920533E-02      0.2486930896E-02

    ------------------------------------------------
       NWT REQUIRED           12 OUTER ITERATIONS 
       AND A TOTAL OF         18 INNER ITERATIONS.
    ------------------------------------------------

 NO OUTPUT CONTROL FOR STRESS PERIOD   31   TIME STEP   19
 
 SOLVING FOR HEAD 
                                                   Max.-Head-Change                         Max.-Flux-Residual
  Residual-Control   Outer-Iter.   Inner-Iter.     Column Row Layer    Maximum-Head-Change  Column Row Layer    Maximum-Flux-Residual          L2-NORM 
          0                 1           2             5    8     1       0.3714657186E+00       5    8    1         0.2030510506E+02      0.2804337379E+02
          0                 2           2             4    7     1      -0.1874390762E+01       5    6    1        -0.1008339798E+03      0.2430899499E+03
          0                 3           2             5    8     1      -0.3620696598E+00       5    8    1        -0.2074697865E+02      0.2605859721E+02
          0                 4           2             5    8     1       0.2464814014E-01       5    8    1         0.1445585307E+01      0.1586041577E+01
          0                 5           1             5    8     1      -0.9810526127E-03       5    8    1        -0.5888289410E-01      0.5956429488E-01
          0                 6           1             5    8     1       0.1210571674E-04       5    8    1         0.7422359170E-03      0.7566978232E-03

    ------------------------------------------------
       NWT REQUIRED            6 OUTER ITERATIONS 
       AND A TOTAL OF         10 INNER ITERATIONS.
    ------------------------------------------------

 NO OUTPUT CONTROL FOR STRESS PERIOD   31   TIME STEP   20
 
 SOLVING FOR HEAD 
                                                   Max.-Head-Change                         Max.-Flux-Residual
  Residual-Control   Outer-Iter.   Inner-Iter.     Column Row Layer    Maximum-Head-Change  Column Row Layer    Maximum-Flux-Residual          L2-NORM 
          0                 1           2             5    6     1       0.1987950623E+00       5    6    1         0.1079714826E+02      0.2466877205E+02
          0                 2           2             5    6     1      -0.8756824366E-01       5    6    1        -0.4829666395E+01      0.1141427199E+02
          0                 3           2             5    7     1       0.1750617025E-01       5    6    1         0.9859356587E+00      0.2381587930E+01
          0                 4           2             5    7     1      -0.6965885257E-03       5    6    1        -0.4032489159E-01      0.9752828508E-01
          0                 5           1             5    7     1       0.8589244629E-05       5    6    1         0.5110405473E-03      0.1255886721E-02

    ------------------------------------------------
       NWT REQUIRED            5 OUTER ITERATIONS 
       AND A TOTAL OF          9 INNER ITERATIONS.
    ------------------------------------------------

 NO OUTPUT CONTROL FOR STRESS PERIOD   31   TIME STEP   21
 
 SOLVING FOR HEAD 
                                                   Max.-Head-Change                         Max.-Flux-Residual
  Residual-Control   Outer-Iter.   Inner-Iter.     Column Row Layer    Maximum-Head-Change  Column Row Layer    Maximum-Flux-Residual          L2-NORM 
          0                 1           2             5    6     1       0.1919222263E+00       5    6    1         0.1041781875E+02      0.2414760961E+02
          0                 2           2             5    8     1       0.5594943177E-01       5    8    1         0.3104499997E+01      0.3865827423E+01
          0                 3           2             5    8     1       0.2327969703E-01       5    8    1         0.1282874128E+01      0.1293063315E+01
          0                 4           2             5    8     1       0.9686365747E-02       5    8    1         0.5343374788E+00      0.5343753962E+00
          0                 5           1             5    8     1       0.4030365766E-02       5    8    1         0.2223000513E+00      0.2223033216E+00
          0                 6           1             5    8     1       0.1676980956E-02       5    8    1         0.9249750944E-01      0.9249866778E-01
          0                 7           1             5    8     1       0.6977692526E-03       5    8    1         0.3848692265E-01      0.3848741188E-01
          0                 8           1             5    8     1       0.2903324219E-03       5    8    1         0.1601389641E-01      0.1601409960E-01
          0                 9           1             5    8     1       0.1208034260E-03       5    8    1         0.6663167805E-02      0.6663252336E-02
          0                10           1             5    8     1       0.5026468544E-04       5    8    1         0.2772454878E-02      0.2772490046E-02

    ------------------------------------------------
       NWT REQUIRED           10 OUTER ITERATIONS 
       AND A TOTAL OF         14 INNER ITERATIONS.
    ------------------------------------------------

 NO OUTPUT CONTROL FOR STRESS PERIOD   31   TIME STEP   22
 
 SOLVING FOR HEAD 
     PET DIFF ERROR     6    4    0.2245443484E-08    0.1500000053E-06
     PET DIFF ERROR     6    5    0.2245443498E-08    0.1500000053E-06
     PET DIFF ERROR     7    4    0.2245436923E-08    0.1500000053E-06
     PET DIFF ERROR     7    5    0.2245443484E-08    0.1500000053E-06
     PET DIFF ERROR     8    4    0.2245436923E-08    0.1500000053E-06
     PET DIFF ERROR     8    5    0.2245436916E-08    0.1500000053E-06
                                                   Max.-Head-Change                         Max.-Flux-Residual
  Residual-Control   Outer-Iter.   Inner-Iter.     Column Row Layer    Maximum-Head-Change  Column Row Layer    Maximum-Flux-Residual          L2-NORM 
          0                 1           2             5    8     1       0.3480866190E+00       5    8    1         0.1901801957E+02      0.2931790520E+02
     PET DIFF ERROR     6    4    0.2245443484E-08    0.1500000053E-06
     PET DIFF ERROR     6    5    0.2245443498E-08    0.1500000053E-06
     PET DIFF ERROR     7    4    0.2245436923E-08    0.1500000053E-06
     PET DIFF ERROR     7    5    0.2245443484E-08    0.1500000053E-06
     PET DIFF ERROR     8    4    0.2245436923E-08    0.1500000053E-06
     PET DIFF ERROR     8    5    0.2245436916E-08    0.1500000053E-06
          0                 2           2             5    8     1       0.1429507254E+00       5    8    1         0.7904613110E+01      0.8213426882E+01
     PET DIFF ERROR     6    4    0.2245443484E-08    0.1500000053E-06
     PET DIFF ERROR     6    5    0.2245443498E-08    0.1500000053E-06
     PET DIFF ERROR     7    4    0.2245436923E-08    0.1500000053E-06
     PET DIFF ERROR     7    5    0.2245443484E-08    0.1500000053E-06
     PET DIFF ERROR     8    4    0.2245436923E-08    0.1500000053E-06
     PET DIFF ERROR     8    5    0.2245436916E-08    0.1500000053E-06
          0                 3           2             5    8     1       0.5870459006E-01       5    8    1         0.3237124743E+01      0.3240993397E+01
     PET DIFF ERROR     6    4    0.2245443484E-08    0.1500000053E-06
     PET DIFF ERROR     6    5    0.2245443498E-08    0.1500000053E-06
     PET DIFF ERROR     7    4    0.2245436923E-08    0.1500000053E-06
     PET DIFF ERROR     7    5    0.2245443484E-08    0.1500000053E-06
     PET DIFF ERROR     8    4    0.2245436923E-08    0.1500000053E-06
     PET DIFF ERROR     8    5    0.2245436916E-08    0.1500000053E-06
          0                 4           2             5    8     1       0.2410795755E-01       5    8    1         0.1329923613E+01      0.1329938417E+01
     PET DIFF ERROR     6    4    0.2245443484E-08    0.1500000053E-06
     PET DIFF ERROR     6    5    0.2245443498E-08    0.1500000053E-06
     PET DIFF ERROR     7    4    0.2245436923E-08    0.1500000053E-06
     PET DIFF ERROR     7    5    0.2245443484E-08    0.1500000053E-06
     PET DIFF ERROR     8    4    0.2245436923E-08    0.1500000053E-06
     PET DIFF ERROR     8    5    0.2245436916E-08    0.1500000053E-06
          0                 5           2             5    8     1       0.9900318256E-02       5    8    1         0.5461425935E+00      0.5461453413E+00
     PET DIFF ERROR     6    4    0.2245443484E-08    0.1500000053E-06
     PET DIFF ERROR     6    5    0.2245443498E-08    0.1500000053E-06
     PET DIFF ERROR     7    4    0.2245436923E-08    0.1500000053E-06
     PET DIFF ERROR     7    5    0.2245443484E-08    0.1500000053E-06
     PET DIFF ERROR     8    4    0.2245436923E-08    0.1500000053E-06
     PET DIFF ERROR     8    5    0.2245436916E-08    0.1500000053E-06
          0                 6           1             5    8     1       0.4065725880E-02       5    8    1         0.2242825919E+00      0.2242836095E+00
     PET DIFF ERROR     6    4    0.2245443484E-08    0.1500000053E-06
     PET DIFF ERROR     6    5    0.2245443498E-08    0.1500000053E-06
     PET DIFF ERROR     7    4    0.2245436923E-08    0.1500000053E-06
     PET DIFF ERROR     7    5    0.2245443484E-08    0.1500000053E-06
     PET DIFF ERROR     8    4    0.2245436923E-08    0.1500000053E-06
     PET DIFF ERROR     8    5    0.2245436916E-08    0.1500000053E-06
          0                 7           1             5    8     1       0.1669656425E-02       5    8    1         0.9210538864E-01      0.9210580746E-01
     PET DIFF ERROR     6    4    0.2245443484E-08    0.1500000053E-06
     PET DIFF ERROR     6    5    0.2245443498E-08    0.1500000053E-06
     PET DIFF ERROR     7    4    0.2245436923E-08    0.1500000053E-06
     PET DIFF ERROR     7    5    0.2245443484E-08    0.1500000053E-06
     PET DIFF ERROR     8    4    0.2245436923E-08    0.1500000053E-06
     PET DIFF ERROR     8    5    0.2245436916E-08    0.1500000053E-06
          0                 8           1             5    8     1       0.6856716054E-03       5    8    1         0.3782458320E-01      0.3782475522E-01
     PET DIFF ERROR     6    4    0.2245443484E-08    0.1500000053E-06
     PET DIFF ERROR     6    5    0.2245443498E-08    0.1500000053E-06
     PET DIFF ERROR     7    4    0.2245436923E-08    0.1500000053E-06
     PET DIFF ERROR     7    5    0.2245443484E-08    0.1500000053E-06
     PET DIFF ERROR     8    4    0.2245436923E-08    0.1500000053E-06
     PET DIFF ERROR     8    5    0.2245436916E-08    0.1500000053E-06
          0                 9           1             5    8     1       0.2815822215E-03       5    8    1         0.1553328385E-01      0.1553335445E-01
     PET DIFF ERROR     6    4    0.2245443484E-08    0.1500000053E-06
     PET DIFF ERROR     6    5    0.2245443498E-08    0.1500000053E-06
     PET DIFF ERROR     7    4    0.2245436923E-08    0.1500000053E-06
     PET DIFF ERROR     7    5    0.2245443484E-08    0.1500000053E-06
     PET DIFF ERROR     8    4    0.2245436923E-08    0.1500000053E-06
     PET DIFF ERROR     8    5    0.2245436916E-08    0.1500000053E-06
          0                10           1             5    8     1       0.1156363303E-03       5    8    1         0.6378996647E-02      0.6379025638E-02
     PET DIFF ERROR     6    4    0.2245443484E-08    0.1500000053E-06
     PET DIFF ERROR     6    5    0.2245443498E-08    0.1500000053E-06
     PET DIFF ERROR     7    4    0.2245436923E-08    0.1500000053E-06
     PET DIFF ERROR     7    5    0.2245443484E-08    0.1500000053E-06
     PET DIFF ERROR     8    4    0.2245436923E-08    0.1500000053E-06
     PET DIFF ERROR     8    5    0.2245436916E-08    0.1500000053E-06
          0                11           1             5    8     1       0.4748794501E-04       5    8    1         0.2619639104E-02      0.2619651038E-02

    ------------------------------------------------
       NWT REQUIRED           11 OUTER ITERATIONS 
       AND A TOTAL OF         16 INNER ITERATIONS.
    ------------------------------------------------

 NO OUTPUT CONTROL FOR STRESS PERIOD   31   TIME STEP   23
     PET DIFF ERROR     6    4    0.2245443484E-08    0.1500000053E-06
     PET DIFF ERROR     6    5    0.2245443498E-08    0.1500000053E-06
     PET DIFF ERROR     7    4    0.2245436923E-08    0.1500000053E-06
     PET DIFF ERROR     7    5    0.2245443484E-08    0.1500000053E-06
     PET DIFF ERROR     8    4    0.2245436923E-08    0.1500000053E-06
     PET DIFF ERROR     8    5    0.2245436916E-08    0.1500000053E-06
 
 SOLVING FOR HEAD 
                                                   Max.-Head-Change                         Max.-Flux-Residual
  Residual-Control   Outer-Iter.   Inner-Iter.     Column Row Layer    Maximum-Head-Change  Column Row Layer    Maximum-Flux-Residual          L2-NORM 
          0                 1           2             5    8     1       0.4250585085E+00       5    8    1         0.2324389167E+02      0.3188292390E+02
          0                 2           2             5    8     1       0.1236317887E+00       5    8    1         0.6943711636E+01      0.1183766183E+02
          0                 3           2             5    8     1       0.7320358330E-01       5    8    1         0.3999630058E+01      0.4958244733E+01
          0                 4           2             5    8     1       0.3218781629E-01       5    8    1         0.1777333404E+01      0.1781195490E+01
          0                 5           2             5    8     1       0.1415302620E-01       5    8    1         0.7807641192E+00      0.7807765558E+00
          0                 6           2             5    8     1       0.6223106505E-02       5    8    1         0.3433004477E+00      0.3433061363E+00
          0                 7           1             5    8     1       0.2736309287E-02       5    8    1         0.1509499146E+00      0.1509524187E+00
          0                 8           1             5    8     1       0.1203159342E-02       5    8    1         0.6637292682E-01      0.6637402797E-01
          0                 9           1             5    8     1       0.5290309930E-03       5    8    1         0.2918428292E-01      0.2918476694E-01
          0                10           1             5    8     1       0.2326157335E-03       5    8    1         0.1283237488E-01      0.1283258789E-01
                                                   Max.-Head-Change                         Max.-Flux-Residual
  Residual-Control   Outer-Iter.   Inner-Iter.     Column Row Layer    Maximum-Head-Change  Column Row Layer    Maximum-Flux-Residual          L2-NORM 
          0                11           1             5    8     1       0.1022814929E-03       5    8    1         0.5642415127E-02      0.5642509211E-02
          0                12           1             5    8     1       0.4497332858E-04       5    8    1         0.2480978632E-02      0.2481021041E-02

    ------------------------------------------------
       NWT REQUIRED           12 OUTER ITERATIONS 
       AND A TOTAL OF         18 INNER ITERATIONS.
    ------------------------------------------------

 NO OUTPUT CONTROL FOR STRESS PERIOD   31   TIME STEP   24
 
 SOLVING FOR HEAD 
                                                   Max.-Head-Change                         Max.-Flux-Residual
  Residual-Control   Outer-Iter.   Inner-Iter.     Column Row Layer    Maximum-Head-Change  Column Row Layer    Maximum-Flux-Residual          L2-NORM 
          0                 1           2             5    8     1       0.3694984781E+00       5    8    1         0.2015233140E+02      0.3054638008E+02
          0                 2           2             5    8     1       0.1596982388E+00       5    8    1         0.8833439471E+01      0.1036564370E+02
          0                 3           2             5    8     1       0.6897742127E-01       5    8    1         0.3803588880E+01      0.4333587375E+01
          0                 4           2             5    8     1       0.2958819580E-01       5    8    1         0.1632296106E+01      0.1841440349E+01
          0                 5           2             5    8     1       0.1269192749E-01       5    8    1         0.7001602897E+00      0.7829634148E+00
          0                 6           2             5    8     1       0.5444202692E-02       5    8    1         0.3003365367E+00      0.3331108785E+00
          0                 7           2             5    8     1       0.2335278210E-02       5    8    1         0.1288294177E+00      0.1417987293E+00
          0                 8           2             5    8     1       0.1001706928E-02       5    8    1         0.5526107610E-01      0.6039203679E-01
          0                 9           2             5    8     1       0.4296754314E-03       5    8    1         0.2370397996E-01      0.2573348009E-01
          0                10           1             5    8     1       0.1843054767E-03       5    8    1         0.1016765876E-01      0.1097025348E-01
          0                11           1             5    8     1       0.7905583753E-04       5    8    1         0.4361325684E-02      0.4678668606E-02

    ------------------------------------------------
       NWT REQUIRED           11 OUTER ITERATIONS 
       AND A TOTAL OF         20 INNER ITERATIONS.
    ------------------------------------------------

 NO OUTPUT CONTROL FOR STRESS PERIOD   31   TIME STEP   25
 
 SOLVING FOR HEAD 
                                                   Max.-Head-Change                         Max.-Flux-Residual
  Residual-Control   Outer-Iter.   Inner-Iter.     Column Row Layer    Maximum-Head-Change  Column Row Layer    Maximum-Flux-Residual          L2-NORM 
          0                 1           2             4    8     1       0.5299798266E+00       4    8    1         0.2847416984E+02      0.4530567563E+02
          0                 2           2             4    7     1      -0.1870906261E+01       4    6    1        -0.1008046540E+03      0.2305897807E+03
          0                 3           2             4    8     1      -0.5115080662E+00       4    8    1        -0.2833117567E+02      0.4259020603E+02
          0                 4           2             4    8     1       0.3482405077E-01       4    8    1         0.1980128441E+01      0.2924709867E+01
          0                 5           2             4    8     1      -0.1386067565E-02       4    8    1        -0.8090261895E-01      0.1184161001E+00
          0                 6           1             4    8     1       0.1710341987E-04       4    8    1         0.1023868054E-02      0.1505232670E-02

    ------------------------------------------------
       NWT REQUIRED            6 OUTER ITERATIONS 
       AND A TOTAL OF         11 INNER ITERATIONS.
    ------------------------------------------------

 NO OUTPUT CONTROL FOR STRESS PERIOD   31   TIME STEP   26
 
 SOLVING FOR HEAD 
                                                   Max.-Head-Change                         Max.-Flux-Residual
  Residual-Control   Outer-Iter.   Inner-Iter.     Column Row Layer    Maximum-Head-Change  Column Row Layer    Maximum-Flux-Residual          L2-NORM 
          0                 1           2             4    8     1       0.2035158903E+00       4    8    1         0.1096930850E+02      0.2532873325E+02
          0                 2           2             4    8     1      -0.8889375104E-01       4    8    1        -0.4846931266E+01      0.1144476672E+02
          0                 3           2             5    7     1       0.1767632845E-01       4    8    1         0.9871408729E+00      0.2383205204E+01
          0                 4           2             5    7     1      -0.7033597406E-03       4    8    1        -0.4037423959E-01      0.9759481034E-01
          0                 5           1             5    7     1       0.8672736231E-05       4    8    1         0.5116658656E-03      0.1257097506E-02

    ------------------------------------------------
       NWT REQUIRED            5 OUTER ITERATIONS 
       AND A TOTAL OF          9 INNER ITERATIONS.
    ------------------------------------------------

 NO OUTPUT CONTROL FOR STRESS PERIOD   31   TIME STEP   27
 
 SOLVING FOR HEAD 
                                                   Max.-Head-Change                         Max.-Flux-Residual
  Residual-Control   Outer-Iter.   Inner-Iter.     Column Row Layer    Maximum-Head-Change  Column Row Layer    Maximum-Flux-Residual          L2-NORM 
          0                 1           2             4    8     1       0.4150049396E+00       4    8    1         0.2243252013E+02      0.3613022426E+02
          0                 2           2             4    8     1       0.1804342756E+00       4    8    1         0.9791398318E+01      0.1364014005E+02
          0                 3           2             4    8     1       0.7836579869E-01       4    8    1         0.4248884979E+01      0.5876281921E+01
          0                 4           2             4    8     1       0.3403594157E-01       4    8    1         0.1845550235E+01      0.2552519648E+01
          0                 5           2             4    8     1       0.1478263421E-01       4    8    1         0.8015642985E+00      0.1109096682E+01
          0                 6           2             4    8     1       0.6420497221E-02       4    8    1         0.3481390047E+00      0.4820034885E+00
          0                 7           2             4    8     1       0.2788612570E-02       4    8    1         0.1512063886E+00      0.2095124584E+00
          0                 8           2             4    8     1       0.1211184557E-02       4    8    1         0.6567347130E-01      0.9108430755E-01
          0                 9           2             4    8     1       0.5260597124E-03       4    8    1         0.2852412948E-01      0.3960481625E-01
          0                10           2             4    8     1       0.2284874180E-03       4    8    1         0.1238903172E-01      0.1722343204E-01
          0                11           1             4    8     1       0.9924120898E-04       4    8    1         0.5381022954E-02      0.7491268527E-02

    ------------------------------------------------
       NWT REQUIRED           11 OUTER ITERATIONS 
       AND A TOTAL OF         21 INNER ITERATIONS.
    ------------------------------------------------

 NO OUTPUT CONTROL FOR STRESS PERIOD   31   TIME STEP   28
 
 SOLVING FOR HEAD 
     PET DIFF ERROR     6    4    0.2245443533E-08    0.1500000053E-06
     PET DIFF ERROR     6    5    0.2245443498E-08    0.1500000053E-06
     PET DIFF ERROR     7    4    0.2245443449E-08    0.1500000053E-06
     PET DIFF ERROR     7    5    0.2245436909E-08    0.1500000053E-06
     PET DIFF ERROR     8    4    0.2245443498E-08    0.1500000053E-06
     PET DIFF ERROR     8    5    0.2245436916E-08    0.1500000053E-06
                                                   Max.-Head-Change                         Max.-Flux-Residual
  Residual-Control   Outer-Iter.   Inner-Iter.     Column Row Layer    Maximum-Head-Change  Column Row Layer    Maximum-Flux-Residual          L2-NORM 
          0                 1           2             5    7     1       0.4852970584E+00       5    7    1         0.2610640714E+02      0.4842569001E+02
     PET DIFF ERROR     6    4    0.2245443533E-08    0.1500000053E-06
     PET DIFF ERROR     6    5    0.2245443498E-08    0.1500000053E-06
     PET DIFF ERROR     7    4    0.2245443449E-08    0.1500000053E-06
     PET DIFF ERROR     7    5    0.2245436909E-08    0.1500000053E-06
     PET DIFF ERROR     8    4    0.2245443498E-08    0.1500000053E-06
     PET DIFF ERROR     8    5    0.2245436916E-08    0.1500000053E-06
          0                 2           2             5    7     1       0.2101033209E+00       5    7    1         0.1133507760E+02      0.1992666979E+02
     PET DIFF ERROR     6    4    0.2245443533E-08    0.1500000053E-06
     PET DIFF ERROR     6    5    0.2245443498E-08    0.1500000053E-06
     PET DIFF ERROR     7    4    0.2245443449E-08    0.1500000053E-06
     PET DIFF ERROR     7    5    0.2245436909E-08    0.1500000053E-06
     PET DIFF ERROR     8    4    0.2245443498E-08    0.1500000053E-06
     PET DIFF ERROR     8    5    0.2245436916E-08    0.1500000053E-06
          0                 3           2             5    7     1       0.9095204547E-01       5    7    1         0.4904152841E+01      0.8588771240E+01
     PET DIFF ERROR     6    4    0.2245443533E-08    0.1500000053E-06
     PET DIFF ERROR     6    5    0.2245443498E-08    0.1500000053E-06
     PET DIFF ERROR     7    4    0.2245443449E-08    0.1500000053E-06
     PET DIFF ERROR     7    5    0.2245436909E-08    0.1500000053E-06
     PET DIFF ERROR     8    4    0.2245443498E-08    0.1500000053E-06
     PET DIFF ERROR     8    5    0.2245436916E-08    0.1500000053E-06
          0                 4           2             5    7     1       0.3936548432E-01       5    7    1         0.2123085529E+01      0.3712456358E+01
     PET DIFF ERROR     6    4    0.2245443533E-08    0.1500000053E-06
     PET DIFF ERROR     6    5    0.2245443498E-08    0.1500000053E-06
     PET DIFF ERROR     7    4    0.2245443449E-08    0.1500000053E-06
     PET DIFF ERROR     7    5    0.2245436909E-08    0.1500000053E-06
     PET DIFF ERROR     8    4    0.2245443498E-08    0.1500000053E-06
     PET DIFF ERROR     8    5    0.2245436916E-08    0.1500000053E-06
          0                 5           2             5    7     1       0.1704452264E-01       5    7    1         0.9188760734E+00      0.1616851962E+01
     PET DIFF ERROR     6    4    0.2245443533E-08    0.1500000053E-06
     PET DIFF ERROR     6    5    0.2245443498E-08    0.1500000053E-06
     PET DIFF ERROR     7    4    0.2245443449E-08    0.1500000053E-06
     PET DIFF ERROR     7    5    0.2245436909E-08    0.1500000053E-06
     PET DIFF ERROR     8    4    0.2245443498E-08    0.1500000053E-06
     PET DIFF ERROR     8    5    0.2245436916E-08    0.1500000053E-06
          0                 6           2             5    7     1       0.7384775725E-02       5    7    1         0.3978949427E+00      0.7061763561E+00
     PET DIFF ERROR     6    4    0.2245443533E-08    0.1500000053E-06
     PET DIFF ERROR     6    5    0.2245443498E-08    0.1500000053E-06
     PET DIFF ERROR     7    4    0.2245443449E-08    0.1500000053E-06
     PET DIFF ERROR     7    5    0.2245436909E-08    0.1500000053E-06
     PET DIFF ERROR     8    4    0.2245443498E-08    0.1500000053E-06
     PET DIFF ERROR     8    5    0.2245436916E-08    0.1500000053E-06
          0                 7           2             5    7     1       0.3201737941E-02       5    7    1         0.1724157772E+00      0.3087967590E+00
     PET DIFF ERROR     6    4    0.2245443533E-08    0.1500000053E-06
     PET DIFF ERROR     6    5    0.2245443498E-08    0.1500000053E-06
     PET DIFF ERROR     7    4    0.2245443449E-08    0.1500000053E-06
     PET DIFF ERROR     7    5    0.2245436909E-08    0.1500000053E-06
     PET DIFF ERROR     8    4    0.2245443498E-08    0.1500000053E-06
     PET DIFF ERROR     8    5    0.2245436916E-08    0.1500000053E-06
          0                 8           2             5    7     1       0.1389085080E-02       5    7    1         0.7476201457E-01      0.1351880819E+00
     PET DIFF ERROR     6    4    0.2245443533E-08    0.1500000053E-06
     PET DIFF ERROR     6    5    0.2245443498E-08    0.1500000053E-06
     PET DIFF ERROR     7    4    0.2245443449E-08    0.1500000053E-06
     PET DIFF ERROR     7    5    0.2245436909E-08    0.1500000053E-06
     PET DIFF ERROR     8    4    0.2245443498E-08    0.1500000053E-06
     PET DIFF ERROR     8    5    0.2245436916E-08    0.1500000053E-06
          0                 9           2             5    7     1       0.6030660553E-03       5    7    1         0.3243987853E-01      0.5925144413E-01
     PET DIFF ERROR     6    4    0.2245443533E-08    0.1500000053E-06
     PET DIFF ERROR     6    5    0.2245443498E-08    0.1500000053E-06
     PET DIFF ERROR     7    4    0.2245443449E-08    0.1500000053E-06
     PET DIFF ERROR     7    5    0.2245436909E-08    0.1500000053E-06
     PET DIFF ERROR     8    4    0.2245443498E-08    0.1500000053E-06
     PET DIFF ERROR     8    5    0.2245436916E-08    0.1500000053E-06
          0                10           2             5    7     1       0.2619944326E-03       5    7    1         0.1408542753E-01      0.2599805974E-01
     PET DIFF ERROR     6    4    0.2245443533E-08    0.1500000053E-06
     PET DIFF ERROR     6    5    0.2245443498E-08    0.1500000053E-06
     PET DIFF ERROR     7    4    0.2245443449E-08    0.1500000053E-06
     PET DIFF ERROR     7    5    0.2245436909E-08    0.1500000053E-06
     PET DIFF ERROR     8    4    0.2245443498E-08    0.1500000053E-06
     PET DIFF ERROR     8    5    0.2245436916E-08    0.1500000053E-06
                                                   Max.-Head-Change                         Max.-Flux-Residual
  Residual-Control   Outer-Iter.   Inner-Iter.     Column Row Layer    Maximum-Head-Change  Column Row Layer    Maximum-Flux-Residual          L2-NORM 
          0                11           2             5    7     1       0.1138959647E-03       5    7    1         0.6120002409E-02      0.1141956106E-01
     PET DIFF ERROR     6    4    0.2245443533E-08    0.1500000053E-06
     PET DIFF ERROR     6    5    0.2245443498E-08    0.1500000053E-06
     PET DIFF ERROR     7    4    0.2245443449E-08    0.1500000053E-06
     PET DIFF ERROR     7    5    0.2245436909E-08    0.1500000053E-06
     PET DIFF ERROR     8    4    0.2245443498E-08    0.1500000053E-06
     PET DIFF ERROR     8    5    0.2245436916E-08    0.1500000053E-06
          0                12           1             5    7     1       0.4954640079E-04       5    7    1         0.2660858754E-02      0.5021205191E-02

    ------------------------------------------------
       NWT REQUIRED           12 OUTER ITERATIONS 
       AND A TOTAL OF         23 INNER ITERATIONS.
    ------------------------------------------------

 NO OUTPUT CONTROL FOR STRESS PERIOD   31   TIME STEP   29
     PET DIFF ERROR     6    4    0.2245443533E-08    0.1500000053E-06
     PET DIFF ERROR     6    5    0.2245443498E-08    0.1500000053E-06
     PET DIFF ERROR     7    4    0.2245443449E-08    0.1500000053E-06
     PET DIFF ERROR     7    5    0.2245436909E-08    0.1500000053E-06
     PET DIFF ERROR     8    4    0.2245443498E-08    0.1500000053E-06
     PET DIFF ERROR     8    5    0.2245436916E-08    0.1500000053E-06
 
 SOLVING FOR HEAD 
                                                   Max.-Head-Change                         Max.-Flux-Residual
  Residual-Control   Outer-Iter.   Inner-Iter.     Column Row Layer    Maximum-Head-Change  Column Row Layer    Maximum-Flux-Residual          L2-NORM 
          0                 1           2             5    7     1       0.4277596518E+00       5    7    1         0.2284345918E+02      0.4682870457E+02
          0                 2           2             5    8     1       0.1297006726E+00       5    8    1         0.6967316965E+01      0.1398500258E+02
          0                 3           2             5    8     1       0.7762200853E-01       5    8    1         0.4173398589E+01      0.7681926536E+01
          0                 4           2             5    8     1       0.3510509799E-01       5    8    1         0.1889361754E+01      0.3273839027E+01
          0                 5           2             5    8     1       0.1585622121E-01       5    8    1         0.8542800840E+00      0.1433511672E+01
          0                 6           2             5    8     1       0.7153548457E-02       5    8    1         0.3857711771E+00      0.6287261967E+00
          0                 7           2             5    8     1       0.3223877143E-02       5    8    1         0.1740048508E+00      0.2760402318E+00
          0                 8           2             5    8     1       0.1451472583E-02       5    8    1         0.7840347618E-01      0.1213117949E+00
          0                 9           2             5    8     1       0.6529003594E-03       5    8    1         0.3529306877E-01      0.5336138584E-01
          0                10           2             5    8     1       0.2934428913E-03       5    8    1         0.1587293668E-01      0.2349190872E-01
                                                   Max.-Head-Change                         Max.-Flux-Residual
  Residual-Control   Outer-Iter.   Inner-Iter.     Column Row Layer    Maximum-Head-Change  Column Row Layer    Maximum-Flux-Residual          L2-NORM 
          0                11           1             5    8     1       0.1317852466E-03       5    8    1         0.7132950623E-02      0.1035025380E-01
          0                12           1             5    8     1       0.5914278398E-04       5    8    1         0.3202968058E-02      0.4563523880E-02

    ------------------------------------------------
       NWT REQUIRED           12 OUTER ITERATIONS 
       AND A TOTAL OF         22 INNER ITERATIONS.
    ------------------------------------------------

 NO OUTPUT CONTROL FOR STRESS PERIOD   31   TIME STEP   30



 STREAM LISTING     PERIOD     31   STEP       30

 LAYER ROW COL. STREAM  RCH.  FLOW INTO     FLOW TO   FLOW OUT OF   OVRLND.     DIRECT     STREAM       STREAM     STREAM     STREAM   STREAMBED  STREAMBED
                SEG.NO.  NO.  STRM. RCH.    AQUIFER    STRM. RCH.    RUNOFF     PRECIP       ET          HEAD       DEPTH      WIDTH   CONDCTNC.   GRADIENT

   1    1    1     1     1    3.1124E+01  2.7164E-01   3.0852E+01  0.000E+00  0.000E+00  0.000E+00  1.09431E+03  1.259E+00  1.417E+01  6.378E-02  1.420E+00
   1    2    2     1     2    3.0852E+01  4.2045E-01   3.0432E+01  0.000E+00  0.000E+00  0.000E+00  1.08931E+03  1.256E+00  1.411E+01  9.879E-02  1.419E+00
   1    3    3     1     3    3.0432E+01  3.5834E-01   3.0074E+01  0.000E+00  0.000E+00  0.000E+00  1.08367E+03  1.252E+00  1.404E+01  8.427E-02  1.417E+00
   1    3    4     1     4    3.0074E+01  3.2975E-01   2.9744E+01  0.000E+00  0.000E+00  0.000E+00  1.07866E+03  1.249E+00  1.398E+01  7.761E-02  1.416E+00
   1    4    5     2     1    2.7744E+01  3.3390E-01   2.7410E+01  0.000E+00  0.000E+00  0.000E+00  1.07321E+03  1.281E+00  1.200E+01  7.800E-02  1.427E+00
   1    5    6     2     2    2.7410E+01  2.5635E-01   2.7154E+01  0.000E+00  0.000E+00  0.000E+00  1.06778E+03  1.273E+00  1.200E+01  6.000E-02  1.424E+00
   1    6    6     2     3    2.7154E+01  2.5592E-01   2.6898E+01  0.000E+00  0.000E+00  0.000E+00  1.06306E+03  1.265E+00  1.200E+01  6.000E-02  1.422E+00
   1    7    6     2     4    2.6898E+01  2.5549E-01   2.6642E+01  0.000E+00  0.000E+00  0.000E+00  1.05833E+03  1.258E+00  1.200E+01  6.000E-02  1.419E+00
   1    8    6     2     5    2.6642E+01  2.5506E-01   2.6387E+01  0.000E+00  0.000E+00  0.000E+00  1.05361E+03  1.251E+00  1.200E+01  6.000E-02  1.417E+00
   1    3    5     3     1    2.0000E+00  2.8252E-01   1.7175E+00  0.000E+00  0.000E+00  0.000E+00  1.07555E+03  1.909E+00  9.636E+00  7.227E-02  1.955E+00
   1    3    6     3     2    1.7175E+00  2.4905E-01   1.4684E+00  0.000E+00  0.000E+00  0.000E+00  1.07264E+03  1.727E+00  8.909E+00  6.682E-02  1.864E+00
   1    3    7     3     3    1.4684E+00  1.9718E-01   1.2712E+00  0.000E+00  0.000E+00  0.000E+00  1.06987E+03  1.555E+00  8.218E+00  5.547E-02  1.777E+00
   1    4    8     3     4    1.2712E+00  2.2567E-01   1.0456E+00  0.000E+00  0.000E+00  0.000E+00  1.06682E+03  1.364E+00  7.455E+00  6.709E-02  1.682E+00
   1    5    8     3     5    1.0456E+00  1.5790E-01   8.8768E-01  0.000E+00  0.000E+00  0.000E+00  1.06362E+03  1.164E+00  6.655E+00  4.991E-02  1.582E+00
   1    6    8     3     6    8.8768E-01  5.5980E-02   8.3170E-01  0.000E+00  0.000E+00  0.000E+00  1.06158E+03  1.036E+00  6.145E+00  1.844E-02  1.518E+00
   1    5   10     4     1    1.0000E+01  9.0919E-02   9.9091E+00  0.000E+00  0.000E+00  0.000E+00  1.07836E+03  6.368E-01  1.000E+01  2.500E-02  1.212E+00
   1    5    9     4     2    9.9091E+00  1.8158E-01   9.7275E+00  0.000E+00  0.000E+00  0.000E+00  1.07154E+03  6.315E-01  1.000E+01  5.000E-02  1.211E+00
   1    6    8     4     3    9.7275E+00  1.2689E-01   9.6006E+00  0.000E+00  0.000E+00  0.000E+00  1.06381E+03  6.256E-01  1.000E+01  3.500E-02  1.209E+00
   1    6    8     5     1    1.0432E+01  2.2686E-01   1.0205E+01  0.000E+00  0.000E+00  0.000E+00  1.05868E+03  6.790E-01  1.542E+01  6.166E-02  1.226E+00
   1    7    7     5     2    1.0205E+01  2.7894E-01   9.9265E+00  0.000E+00  0.000E+00  0.000E+00  1.05417E+03  6.732E-01  1.519E+01  7.594E-02  1.224E+00
   1    8    7     5     3    9.9265E+00  1.9221E-01   9.7343E+00  0.000E+00  0.000E+00  0.000E+00  1.04992E+03  6.676E-01  1.497E+01  5.241E-02  1.223E+00
   1    8    6     5     4    9.7343E+00  1.3577E-01   9.5985E+00  0.000E+00  0.000E+00  0.000E+00  1.04691E+03  6.637E-01  1.482E+01  3.706E-02  1.221E+00
   1    9    6     6     1    9.5985E+00  2.2097E-01   9.3776E+00  0.000E+00  0.000E+00  0.000E+00  1.04341E+03  6.828E-01  1.200E+01  6.000E-02  1.228E+00
   1   10    7     6     2    9.3776E+00  2.2039E-01   9.1572E+00  0.000E+00  0.000E+00  0.000E+00  1.03885E+03  6.732E-01  1.200E+01  6.000E-02  1.224E+00
   1   11    7     6     3    9.1572E+00  2.1981E-01   8.9374E+00  0.000E+00  0.000E+00  0.000E+00  1.03430E+03  6.636E-01  1.200E+01  6.000E-02  1.221E+00
   1   12    7     6     4    8.9374E+00  2.1923E-01   8.7181E+00  0.000E+00  0.000E+00  0.000E+00  1.02974E+03  6.539E-01  1.200E+01  6.000E-02  1.218E+00
   1   13    7     6     5    8.7181E+00  4.9319E-03   8.7132E+00  0.000E+00  0.000E+00  0.000E+00  1.02656E+03  6.489E-01  1.200E+01  2.400E-02  6.850E-02
   1   14    9     7     1    1.5000E+02  1.4095E+00   1.4859E+02  0.000E+00  0.000E+00  0.000E+00  1.03987E+03  2.288E+00  5.529E+01  5.593E-01  8.400E-01
   1   13    8     7     2    1.4859E+02  2.0758E+00   1.4651E+02  0.000E+00  0.000E+00  0.000E+00  1.03478E+03  2.278E+00  5.525E+01  6.147E-01  1.126E+00
   1   13    7     7     3    1.4651E+02  1.8618E+00   1.4465E+02  0.000E+00  0.000E+00  0.000E+00  1.02969E+03  2.268E+00  5.520E+01  5.583E-01  1.112E+00
   1   13    6     8     1    1.5337E+02  1.1858E+00   1.5218E+02  0.000E+00  0.000E+00  0.000E+00  1.02471E+03  2.836E+00  4.113E+01  4.191E-01  9.432E-01
   1   13    5     8     2    1.5218E+02  4.2224E-01   1.5176E+02  0.000E+00  0.000E+00  0.000E+00  1.01846E+03  2.831E+00  4.104E+01  4.183E-01  3.365E-01
   1   13    4     8     3    1.5176E+02 -1.7928E+00   1.5355E+02  0.000E+00  0.000E+00  0.000E+00  1.01221E+03  2.835E+00  4.111E+01  4.190E+00 -1.426E-01
   1   13    3     8     4    1.5355E+02 -3.4342E+00   1.5699E+02  0.000E+00  0.000E+00  0.000E+00  1.00598E+03  2.854E+00  4.138E+01  4.216E+00 -2.715E-01
   1   13    2     8     5    1.5699E+02 -2.7442E+00   1.5973E+02  0.000E+00  0.000E+00  0.000E+00  9.99750E+02  2.875E+00  4.168E+01  4.248E+00 -2.154E-01
   1   13    1     8     6    1.5973E+02 -2.1219E+00   1.6185E+02  0.000E+00  0.000E+00  0.000E+00  9.94766E+02  2.891E+00  4.192E+01  2.563E+00 -2.759E-01
   1    8    6     9     1    2.6387E+01  0.0000E+00   2.6387E+01  0.000E+00  0.000E+00  0.000E+00  1.08281E+03  4.056E+00  4.000E+00  0.000E+00  2.352E+00
   1    8    5     9     2    2.6387E+01  0.0000E+00   2.6387E+01  0.000E+00  0.000E+00  0.000E+00  1.08231E+03  4.056E+00  4.000E+00  0.000E+00  2.352E+00





UNSATURATED ZONE PACKAGE VOLUMETRIC BUDGET FOR  TIME STEP    30 STRESS PERIOD   31
  ------------------------------------------------------------------------------



     CUMULATIVE VOLUMES      L**3       RATES FOR THIS TIME STEP      L**3/T
     ------------------                 ------------------------

           IN:                                      IN:
           ---                                      ---
        INFILTRATION =  7268627202.1419          INFILTRATION =          41.5120

          OUT:                                     OUT:
          ----                                     ----
              UZF ET =   955431420.6039                UZF ET =          23.3175
        UZF RECHARGE =  5459055179.2673          UZF RECHARGE =         137.2050

            IN - OUT =   854140602.2706              IN - OUT =        -119.0104

          STORAGE:                                 STORAGE:
          --------                                 --------
      STORAGE CHANGE =   855126892.8088        STORAGE CHANGE =        -119.0291

 PERCENT DISCREPANCY IS DIFFERENCE BETWEEN IN-OUT MINUS CHANGE IN STORAGE
 DIVIDED BY THE AVERAGE OF IN AND OUT TIMES 100

 PERCENT DISCREPANCY =          -0.00     PERCENT DISCREPANCY =           0.01






1
  VOLUMETRIC BUDGET FOR AGRICULTURAL FIELDS AT  END OF TIME STEP   30, STRESS PERIOD  31
  ------------------------------------------------------------------------------

     CUMULATIVE VOLUMES      L**3       RATES FOR THIS TIME STEP      L**3/T
     ------------------                 ------------------------

           IN:                                      IN:
           ---                                      ---
               AG WELLS  =  6858636800.0000                 AG WELLS  =          14.2769
      DIVERSION SEGMENTS =   343088480.0000        DIVERSION SEGMENTS =          26.3872
           GW IRRIGATION =           0.0000             GW IRRIGATION =           0.0000
           SW IRRIGATION =           0.0000             SW IRRIGATION =           0.0000
        SYSTEM LOSSES GW =           0.0000          SYSTEM LOSSES GW =           0.0000
        SYSTEM LOSSES SW =           0.0000          SYSTEM LOSSES SW =           0.0000

                TOTAL IN =  7201725440.0000                  TOTAL IN =          40.6640

          OUT:                                     OUT:
          ----                                     ----
               AG WELLS  =           0.0000                 AG WELLS  =           0.0000
      DIVERSION SEGMENTS =           0.0000        DIVERSION SEGMENTS =           0.0000
           GW IRRIGATION =  6858636800.0000             GW IRRIGATION =          14.2769
           SW IRRIGATION =   343094560.0000             SW IRRIGATION =          26.3877
        SYSTEM LOSSES GW =           0.0000          SYSTEM LOSSES GW =           0.0000
        SYSTEM LOSSES SW =           0.0000          SYSTEM LOSSES SW =           0.0000

               TOTAL OUT =  7201731584.0000                 TOTAL OUT =          40.6645

                IN - OUT =       -6144.0000                  IN - OUT =      -5.2643E-04

     PERCENT DISCREPANCY =          -0.00         PERCENT DISCREPANCY =          -0.00



1
  VOLUMETRIC BUDGET FOR ENTIRE MODEL AT END OF TIME STEP   30, STRESS PERIOD  31
  ------------------------------------------------------------------------------

     CUMULATIVE VOLUMES      L**3       RATES FOR THIS TIME STEP      L**3/T
     ------------------                 ------------------------

           IN:                                      IN:
           ---                                      ---
             STORAGE     =  6486919680.0000               STORAGE     =          38.0438
       CONSTANT HEAD     =           0.0000         CONSTANT HEAD     =           0.0000
     HEAD DEP BOUNDS     =    22812586.0000       HEAD DEP BOUNDS     =           0.2908
      STREAM LEAKAGE     =   964122816.0000        STREAM LEAKAGE     =          12.9788
        UZF RECHARGE     =  5459055104.0000          UZF RECHARGE     =         137.2050
               GW ET     =           0.0000                 GW ET     =           0.0000
     SURFACE LEAKAGE     =           0.0000       SURFACE LEAKAGE     =           0.0000
           AG WELLS      =           0.0000             AG WELLS      =           0.0000

                TOTAL IN = 12932910080.0000                  TOTAL IN =         188.5183

          OUT:                                     OUT:
          ----                                     ----
             STORAGE     =  5300030976.0000               STORAGE     =         163.8559
       CONSTANT HEAD     =           0.0000         CONSTANT HEAD     =           0.0000
     HEAD DEP BOUNDS     =    22742874.0000       HEAD DEP BOUNDS     =           0.2886
      STREAM LEAKAGE     =   751380096.0000        STREAM LEAKAGE     =          10.0931
        UZF RECHARGE     =           0.0000          UZF RECHARGE     =           0.0000
               GW ET     =           0.0000                 GW ET     =           0.0000
     SURFACE LEAKAGE     =           0.0000       SURFACE LEAKAGE     =           0.0000
           AG WELLS      =  6858636800.0000             AG WELLS      =          14.2769

               TOTAL OUT = 12932790272.0000                 TOTAL OUT =         188.5144

                IN - OUT =      119808.0000                  IN - OUT =       3.8757E-03

     PERCENT DISCREPANCY =           0.00         PERCENT DISCREPANCY =           0.00






         TIME SUMMARY AT END OF TIME STEP   30 IN STRESS PERIOD   31
                    SECONDS     MINUTES      HOURS       DAYS        YEARS
                    -----------------------------------------------------------
   TIME STEP LENGTH  87667.      1461.1      24.352      1.0147     2.77799E-03
 STRESS PERIOD TIME 2.63000E+06  43833.      730.56      30.440     8.33397E-02
         TOTAL TIME 7.89864E+07 1.31644E+06  21941.      914.20      2.5029    
1
1
                            STRESS PERIOD NO.   32, LENGTH =   2630000.    
                            -----------------------------------------------

                              NUMBER OF TIME STEPS =    30

                               MULTIPLIER FOR DELT =     1.000

                            INITIAL TIME STEP SIZE =   87666.66    

 REUSING NON-PARAMETER GHB CELLS FROM LAST STRESS PERIOD

      2 GHB CELLS

 REUSING STREAM SEGMENT DATA FROM LAST STRESS PERIOD



            AREAL INFILTRATION RATE
 READING ON UNIT   19 WITH FORMAT: (FREE)              

            1           2           3           4           5           6           7           8           9          10
 ........................................................................................................................
   1   1.0000E-10  2.0000E-10   0.000       0.000       0.000       0.000       0.000       0.000       0.000       0.000    
   2   2.0000E-10  1.0000E-10  2.0000E-10   0.000       0.000      8.0000E-10  8.0000E-10  5.0000E-10   0.000       0.000    
   3    0.000      5.0000E-10  1.0000E-10  1.0000E-10  8.0000E-10  8.0000E-10  5.0000E-10  5.0000E-10   0.000       0.000    
   4   8.0000E-10  5.0000E-10  1.0000E-10  1.0000E-10  1.0000E-10  1.0000E-10  1.0000E-10  1.0000E-10  2.0000E-10   0.000    
   5   8.0000E-10  5.0000E-10  1.0000E-10  1.0000E-10  1.0000E-10  1.0000E-10  1.0000E-10  1.0000E-10  1.0000E-10  1.0000E-10
   6   8.0000E-10  5.0000E-10  5.0000E-10  2.0000E-10  2.0000E-10  1.0000E-10  1.0000E-10  1.0000E-10  1.0000E-10  5.0000E-10
   7   8.0000E-10  5.0000E-10  5.0000E-10  2.0000E-10  2.0000E-10  1.0000E-10  1.0000E-10  2.0000E-10  2.0000E-10   0.000    
   8    0.000      5.0000E-10  5.0000E-10  2.0000E-10  2.0000E-10  1.0000E-10  1.0000E-10  2.0000E-10  5.0000E-10   0.000    
   9    0.000      5.0000E-10  5.0000E-10  2.0000E-10  2.0000E-10  1.0000E-10  1.0000E-10  2.0000E-10  5.0000E-10   0.000    
  10    0.000      5.0000E-10  5.0000E-10  2.0000E-10  2.0000E-10  1.0000E-10  1.0000E-10  2.0000E-10  5.0000E-10  8.0000E-10
  11    0.000      1.0000E-10  1.0000E-10  1.0000E-10  1.0000E-10  1.0000E-10  1.0000E-10  2.0000E-10  5.0000E-10   0.000    
  12   1.0000E-10  1.0000E-10  1.0000E-10  1.0000E-10  1.0000E-10  1.0000E-10  1.0000E-10  1.0000E-10  2.0000E-10   0.000    
  13   1.0000E-10  1.0000E-10  2.0000E-10  2.0000E-10  2.0000E-10  2.0000E-10  2.0000E-10  1.0000E-10  1.0000E-10   0.000    
  14    0.000      2.0000E-10  5.0000E-10  5.0000E-10  5.0000E-10  5.0000E-10  5.0000E-10  2.0000E-10  1.0000E-10   0.000    
  15    0.000       0.000      8.0000E-10  8.0000E-10  8.0000E-10  8.0000E-10   0.000       0.000       0.000       0.000    

                  ET RATE =  4.000000E-07

 USING ET EXTINCTION DEPTH FROM PREVIOUS STRESS PERIOD. CURRENT PERIOD IS:      32

 USING EXTINCTION WATER CONTENT FROM PREVIOUS STRESS PERIOD. CURRENT PERIOD IS:      32

 USING AIR ENTRY PRESSURE FROM PREVIOUS STRESS PERIOD. CURRENT PERIOD IS:      32

 USING ROOT PRESSURE HEAD FROM PREVIOUS STRESS PERIOD. CURRENT PERIOD IS:      32

 USING ROOT ACTIVITY FROM PREVIOUS STRESS PERIOD. CURRENT PERIOD IS:      32

 PROCESSING AG STRESS PERIOD DATA

 READING AG STRESS PERIOD DATA

 READING IRRIGATION SEGMENT

 READING IRRIGATION WELL

 READING SUPPLEMENTAL WELL

 END PROCESSING AG STRESS PERIOD DATA OPTIONS
 
 SOLVING FOR HEAD 
                                                   Max.-Head-Change                         Max.-Flux-Residual
  Residual-Control   Outer-Iter.   Inner-Iter.     Column Row Layer    Maximum-Head-Change  Column Row Layer    Maximum-Flux-Residual          L2-NORM 
          0                 1           2             5    7     1       0.3844730045E+00       5    7    1         0.2050914012E+02      0.4428031101E+02
          0                 2           2             4    7     1      -0.1522464164E+00       4    7    1        -0.8541744170E+01      0.9091420485E+01
          0                 3           2             4    8     1       0.1469040206E-01       4    8    1         0.7802746976E+00      0.1369656818E+01
          0                 4           2             4    8     1       0.6691665142E-02       4    8    1         0.3589873527E+00      0.5496615020E+00
          0                 5           2             4    8     1       0.3046995597E-02       4    8    1         0.1633751490E+00      0.2447211878E+00
          0                 6           2             4    8     1       0.1386927527E-02       4    8    1         0.7438749693E-01      0.1092157368E+00
          0                 7           2             4    8     1       0.6310832848E-03       4    8    1         0.3385748416E-01      0.4879042689E-01
          0                 8           2             4    8     1       0.2870628763E-03       4    8    1         0.1540498710E-01      0.2181643891E-01
          0                 9           2             4    8     1       0.1305362437E-03       4    8    1         0.7006909909E-02      0.9763354094E-02
          0                10           1             4    8     1       0.5934102050E-04       4    8    1         0.3186078902E-02      0.4372692519E-02

    ------------------------------------------------
       NWT REQUIRED           10 OUTER ITERATIONS 
       AND A TOTAL OF         19 INNER ITERATIONS.
    ------------------------------------------------

 NO OUTPUT CONTROL FOR STRESS PERIOD   32   TIME STEP    1
 
 SOLVING FOR HEAD 
                                                   Max.-Head-Change                         Max.-Flux-Residual
  Residual-Control   Outer-Iter.   Inner-Iter.     Column Row Layer    Maximum-Head-Change  Column Row Layer    Maximum-Flux-Residual          L2-NORM 
          0                 1           2             5    7     1       0.4735321560E+00       5    7    1         0.2538630847E+02      0.5270886196E+02
          0                 2           2             4    7     1      -0.2449744201E+00       4    7    1        -0.1348644377E+02      0.1910069691E+02
          0                 3           2             5    8     1      -0.6632723437E-01       5    8    1        -0.3691390369E+01      0.6812659758E+01
          0                 4           2             5    8     1      -0.2978694194E-01       5    8    1        -0.1656201871E+01      0.2909074006E+01
          0                 5           2             5    8     1      -0.1345014010E-01       5    8    1        -0.7471332103E+00      0.1335193781E+01
          0                 6           2             5    8     1      -0.6079744079E-02       5    8    1        -0.3374068914E+00      0.6154397572E+00
          0                 7           2             5    8     1      -0.2751042018E-02       5    8    1        -0.1525333842E+00      0.2839203787E+00
          0                 8           2             5    8     1      -0.1246113105E-02       5    8    1        -0.6902863237E-01      0.1310894093E+00
          0                 9           2             5    8     1      -0.5650150276E-03       5    8    1        -0.3127095388E-01      0.6057062334E-01
          0                10           2             5    8     1      -0.2564472030E-03       5    8    1        -0.1418059533E-01      0.2800573616E-01
                                                   Max.-Head-Change                         Max.-Flux-Residual
  Residual-Control   Outer-Iter.   Inner-Iter.     Column Row Layer    Maximum-Head-Change  Column Row Layer    Maximum-Flux-Residual          L2-NORM 
          0                11           2             5    6     1      -0.1168185770E-03       5    6    1        -0.6465221867E-02      0.1295663067E-01
          0                12           1             5    6     1      -0.5452363908E-04       5    6    1        -0.3018361643E-02      0.5997489071E-02

    ------------------------------------------------
       NWT REQUIRED           12 OUTER ITERATIONS 
       AND A TOTAL OF         23 INNER ITERATIONS.
    ------------------------------------------------

 NO OUTPUT CONTROL FOR STRESS PERIOD   32   TIME STEP    2
 
 SOLVING FOR HEAD 
                                                   Max.-Head-Change                         Max.-Flux-Residual
  Residual-Control   Outer-Iter.   Inner-Iter.     Column Row Layer    Maximum-Head-Change  Column Row Layer    Maximum-Flux-Residual          L2-NORM 
          0                 1           2             5    7     1       0.4432214070E+00       5    7    1         0.2353136574E+02      0.5382424524E+02
          0                 2           2             5    8     1      -0.1686215105E+01       5    8    1        -0.9293567157E+02      0.2208789976E+03
          0                 3           2             5    7     1      -0.4527241231E+00       5    7    1        -0.2475883762E+02      0.5267521843E+02
          0                 4           2             5    7     1       0.3082939627E-01       5    7    1         0.1732962001E+01      0.3687287686E+01
          0                 5           2             5    7     1      -0.1227039945E-02       5    7    1        -0.7088222571E-01      0.1508386376E+00
          0                 6           1             5    7     1       0.1514116007E-04       5    7    1         0.8980075743E-03      0.1919710460E-02

    ------------------------------------------------
       NWT REQUIRED            6 OUTER ITERATIONS 
       AND A TOTAL OF         11 INNER ITERATIONS.
    ------------------------------------------------

 NO OUTPUT CONTROL FOR STRESS PERIOD   32   TIME STEP    3
 
 SOLVING FOR HEAD 
                                                   Max.-Head-Change                         Max.-Flux-Residual
  Residual-Control   Outer-Iter.   Inner-Iter.     Column Row Layer    Maximum-Head-Change  Column Row Layer    Maximum-Flux-Residual          L2-NORM 
          0                 1           2             4    7     1       0.2174239529E+00       4    7    1         0.1151274892E+02      0.2211336643E+02
          0                 2           2             4    7     1      -0.1885179755E+01       4    7    1        -0.1011513235E+03      0.2468611333E+03
          0                 3           2             4    7     1       0.1283527210E+00       4    7    1         0.7079200929E+01      0.1728358767E+02
          0                 4           2             4    7     1      -0.5107375688E-02       4    7    1        -0.2895411182E+00      0.7073718016E+00
          0                 5           1             4    7     1       0.6297599169E-04       4    7    1         0.3669039042E-02      0.9071929423E-02

    ------------------------------------------------
       NWT REQUIRED            5 OUTER ITERATIONS 
       AND A TOTAL OF          9 INNER ITERATIONS.
    ------------------------------------------------

 NO OUTPUT CONTROL FOR STRESS PERIOD   32   TIME STEP    4
 
 SOLVING FOR HEAD 
                                                   Max.-Head-Change                         Max.-Flux-Residual
  Residual-Control   Outer-Iter.   Inner-Iter.     Column Row Layer    Maximum-Head-Change  Column Row Layer    Maximum-Flux-Residual          L2-NORM 
          0                 1           2             4    6     1       0.2266486808E+00       4    6    1         0.1214311426E+02      0.2664612489E+02
          0                 2           2             4    7     1      -0.1885699632E+01       4    6    1        -0.1012142654E+03      0.2472699621E+03
          0                 3           2             4    7     1       0.1283884993E+00       4    6    1         0.7083500690E+01      0.1731224783E+02
          0                 4           2             4    7     1      -0.5108797486E-02       4    6    1        -0.2896766116E+00      0.7085302763E+00
          0                 5           1             4    7     1       0.6299352605E-04       4    7    1         0.3669930385E-02      0.9080850033E-02

    ------------------------------------------------
       NWT REQUIRED            5 OUTER ITERATIONS 
       AND A TOTAL OF          9 INNER ITERATIONS.
    ------------------------------------------------

 NO OUTPUT CONTROL FOR STRESS PERIOD   32   TIME STEP    5
 
 SOLVING FOR HEAD 
                                                   Max.-Head-Change                         Max.-Flux-Residual
  Residual-Control   Outer-Iter.   Inner-Iter.     Column Row Layer    Maximum-Head-Change  Column Row Layer    Maximum-Flux-Residual          L2-NORM 
          0                 1           2             4    6     1       0.2539750902E+00       4    6    1         0.1360919058E+02      0.3133244130E+02
          0                 2           2             4    7     1      -0.1886301913E+01       4    6    1        -0.1013608564E+03      0.2476645814E+03
          0                 3           2             4    7     1       0.1284298638E+00       4    6    1         0.7093819314E+01      0.1733994089E+02
          0                 4           2             4    7     1      -0.5110441684E-02       4    6    1        -0.2901037889E+00      0.7096546039E+00
          0                 5           1             4    7     1       0.6301380264E-04       4    6    1         0.3673867332E-02      0.9090724074E-02

    ------------------------------------------------
       NWT REQUIRED            5 OUTER ITERATIONS 
       AND A TOTAL OF          9 INNER ITERATIONS.
    ------------------------------------------------

 NO OUTPUT CONTROL FOR STRESS PERIOD   32   TIME STEP    6
 
 SOLVING FOR HEAD 
                                                   Max.-Head-Change                         Max.-Flux-Residual
  Residual-Control   Outer-Iter.   Inner-Iter.     Column Row Layer    Maximum-Head-Change  Column Row Layer    Maximum-Flux-Residual          L2-NORM 
          0                 1           2             4    6     1       0.2804319563E+00       4    6    1         0.1502848044E+02      0.3599777080E+02
          0                 2           2             4    7     1      -0.1886979397E+01       4    6    1        -0.1015027652E+03      0.2480455691E+03
          0                 3           2             4    7     1       0.1284763252E+00       4    6    1         0.7103807788E+01      0.1736670204E+02
          0                 4           2             4    7     1      -0.5112288806E-02       4    6    1        -0.2905172511E+00      0.7107452688E+00
          0                 5           1             4    7     1       0.6303658130E-04       4    6    1         0.3679444433E-02      0.9100619183E-02

    ------------------------------------------------
       NWT REQUIRED            5 OUTER ITERATIONS 
       AND A TOTAL OF          9 INNER ITERATIONS.
    ------------------------------------------------

 NO OUTPUT CONTROL FOR STRESS PERIOD   32   TIME STEP    7
 
 SOLVING FOR HEAD 
                                                   Max.-Head-Change                         Max.-Flux-Residual
  Residual-Control   Outer-Iter.   Inner-Iter.     Column Row Layer    Maximum-Head-Change  Column Row Layer    Maximum-Flux-Residual          L2-NORM 
          0                 1           2             4    6     1       0.3060485446E+00       4    6    1         0.1640251680E+02      0.4056150126E+02
          0                 2           2             4    7     1      -0.1887725353E+01       4    6    1        -0.1016401459E+03      0.2484134859E+03
          0                 3           2             4    7     1       0.1285274263E+00       4    6    1         0.7113476961E+01      0.1739256609E+02
          0                 4           2             4    7     1      -0.5114320660E-02       4    6    1        -0.2909174475E+00      0.7118030635E+00
          0                 5           1             4    7     1       0.6306163768E-04       4    6    1         0.3684839292E-02      0.9111441793E-02

    ------------------------------------------------
       NWT REQUIRED            5 OUTER ITERATIONS 
       AND A TOTAL OF          9 INNER ITERATIONS.
    ------------------------------------------------

 NO OUTPUT CONTROL FOR STRESS PERIOD   32   TIME STEP    8
 
 SOLVING FOR HEAD 
                                                   Max.-Head-Change                         Max.-Flux-Residual
  Residual-Control   Outer-Iter.   Inner-Iter.     Column Row Layer    Maximum-Head-Change  Column Row Layer    Maximum-Flux-Residual          L2-NORM 
          0                 1           2             5    6     1       0.3377462610E+00       5    6    1         0.1837309410E+02      0.4498625712E+02
          0                 2           2             4    7     1      -0.1888533490E+01       5    6    1        -0.1018371236E+03      0.2487688734E+03
          0                 3           2             4    7     1       0.1285827398E+00       5    6    1         0.7127106775E+01      0.1741756721E+02
          0                 4           2             4    7     1      -0.5116520233E-02       5    6    1        -0.2914491897E+00      0.7128286136E+00
          0                 5           1             4    7     1       0.6308876184E-04       4    6    1         0.3690058073E-02      0.9122424668E-02

    ------------------------------------------------
       NWT REQUIRED            5 OUTER ITERATIONS 
       AND A TOTAL OF          9 INNER ITERATIONS.
    ------------------------------------------------

 NO OUTPUT CONTROL FOR STRESS PERIOD   32   TIME STEP    9
 
 SOLVING FOR HEAD 
                                                   Max.-Head-Change                         Max.-Flux-Residual
  Residual-Control   Outer-Iter.   Inner-Iter.     Column Row Layer    Maximum-Head-Change  Column Row Layer    Maximum-Flux-Residual          L2-NORM 
          0                 1           2             5    6     1       0.3737188088E+00       5    6    1         0.2034213292E+02      0.4925570833E+02
          0                 2           2             4    7     1      -0.1889397784E+01       5    6    1        -0.1020339971E+03      0.2491122531E+03
          0                 3           2             4    7     1       0.1286418571E+00       5    6    1         0.7140958488E+01      0.1744173817E+02
          0                 4           2             4    7     1      -0.5118871268E-02       5    6    1        -0.2920226934E+00      0.7138227598E+00
          0                 5           1             4    7     1       0.6311775341E-04       5    6    1         0.3697601544E-02      0.9133410707E-02

    ------------------------------------------------
       NWT REQUIRED            5 OUTER ITERATIONS 
       AND A TOTAL OF          9 INNER ITERATIONS.
    ------------------------------------------------

 NO OUTPUT CONTROL FOR STRESS PERIOD   32   TIME STEP   10
 
 SOLVING FOR HEAD 
                                                   Max.-Head-Change                         Max.-Flux-Residual
  Residual-Control   Outer-Iter.   Inner-Iter.     Column Row Layer    Maximum-Head-Change  Column Row Layer    Maximum-Flux-Residual          L2-NORM 
          0                 1           2             5    8     1       0.4872076492E+00       5    8    1         0.2669473064E+02      0.5573707564E+02
          0                 2           2             4    7     1      -0.1890191337E+01       5    6    1        -0.1022208337E+03      0.2427658161E+03
          0                 3           2             5    8     1      -0.3074212595E+00       5    8    1        -0.1762683067E+02      0.2376176301E+02
          0                 4           2             5    8     1       0.2092891523E-01       5    8    1         0.1227344856E+01      0.1392997983E+01
          0                 5           1             5    8     1      -0.8330140728E-03       5    8    1        -0.4995243553E-01      0.5078208092E-01
          0                 6           1             5    8     1       0.1027900053E-04       5    8    1         0.6287498770E-03      0.6493041010E-03

    ------------------------------------------------
       NWT REQUIRED            6 OUTER ITERATIONS 
       AND A TOTAL OF         10 INNER ITERATIONS.
    ------------------------------------------------

 NO OUTPUT CONTROL FOR STRESS PERIOD   32   TIME STEP   11
 
 SOLVING FOR HEAD 
                                                   Max.-Head-Change                         Max.-Flux-Residual
  Residual-Control   Outer-Iter.   Inner-Iter.     Column Row Layer    Maximum-Head-Change  Column Row Layer    Maximum-Flux-Residual          L2-NORM 
          0                 1           2             5    8     1       0.1498981003E+01       5    8    1         0.8245060446E+02      0.9769690301E+02
          0                 2           2             4    7     1      -0.1890910548E+01       4    6    1        -0.1021474355E+03      0.2326621422E+03
          0                 3           2             5    8     1      -0.5737631697E+00       5    8    1        -0.3272242277E+02      0.3595915743E+02
          0                 4           2             5    8     1      -0.3370641966E+00       5    8    1        -0.1909116094E+02      0.1910132330E+02
          0                 5           2             5    8     1      -0.1980135911E+00       5    8    1        -0.1121960792E+02      0.1121962695E+02
          0                 6           2             5    8     1      -0.1163272655E+00       5    8    1        -0.6590890812E+01      0.6590906202E+01
          0                 7           2             5    8     1      -0.6833908452E-01       5    8    1        -0.3871869306E+01      0.3871878313E+01
          0                 8           2             5    8     1      -0.4014729391E-01       5    8    1        -0.2274571468E+01      0.2274576772E+01
          0                 9           2             5    8     1      -0.2358532792E-01       5    8    1        -0.1336222327E+01      0.1336225448E+01
          0                10           2             5    8     1      -0.1385560569E-01       5    8    1        -0.7849768080E+00      0.7849786427E+00
                                                   Max.-Head-Change                         Max.-Flux-Residual
  Residual-Control   Outer-Iter.   Inner-Iter.     Column Row Layer    Maximum-Head-Change  Column Row Layer    Maximum-Flux-Residual          L2-NORM 
          0                11           2             5    8     1      -0.8139668823E-02       5    8    1        -0.4611403694E+00      0.4611414477E+00
          0                12           1             5    8     1      -0.4781733662E-02       5    8    1        -0.2708988968E+00      0.2708995305E+00
          0                13           1             5    8     1      -0.2809062120E-02       5    8    1        -0.1591398145E+00      0.1591401868E+00
          0                14           1             5    8     1      -0.1650192275E-02       5    8    1        -0.9348626839E-01      0.9348648712E-01
          0                15           1             5    8     1      -0.9694043457E-03       5    8    1        -0.5491791982E-01      0.5491804832E-01
          0                16           1             5    8     1      -0.5694722393E-03       5    8    1        -0.3226098008E-01      0.3226105558E-01
          0                17           1             5    8     1      -0.3345317345E-03       5    8    1        -0.1895126607E-01      0.1895131044E-01
          0                18           1             5    8     1      -0.1965166030E-03       5    8    1        -0.1113258646E-01      0.1113261255E-01
          0                19           1             5    8     1      -0.1154405353E-03       5    8    1        -0.6539598555E-02      0.6539613886E-02
          0                20           1             5    8     1      -0.6781325135E-04       5    8    1        -0.3841521426E-02      0.3841530553E-02

    ------------------------------------------------
       NWT REQUIRED           20 OUTER ITERATIONS 
       AND A TOTAL OF         31 INNER ITERATIONS.
    ------------------------------------------------

 NO OUTPUT CONTROL FOR STRESS PERIOD   32   TIME STEP   12
 
 SOLVING FOR HEAD 
                                                   Max.-Head-Change                         Max.-Flux-Residual
  Residual-Control   Outer-Iter.   Inner-Iter.     Column Row Layer    Maximum-Head-Change  Column Row Layer    Maximum-Flux-Residual          L2-NORM 
          0                 1           2             5    8     1       0.2328884449E+01       5    8    1         0.1273744558E+03      0.1636054901E+03
          0                 2           2             4    7     1      -0.1877256243E+01       4    6    1        -0.1022625298E+03      0.1882870261E+03
          0                 3           2             5    7     1      -0.8045721523E+00       5    7    1        -0.4486574403E+02      0.7456522585E+02
          0                 4           2             5    6     1      -0.3948195485E+00       5    6    1        -0.2239804640E+02      0.3180026225E+02
          0                 5           2             5    6     1      -0.2321382590E+00       5    6    1        -0.1314145212E+02      0.1467553829E+02
          0                 6           2             5    6     1      -0.9310367660E-01       5    6    1        -0.5270676048E+01      0.6462831820E+01
          0                 7           2             5    8     1      -0.3877754010E-01       5    8    1        -0.2197515936E+01      0.2228366109E+01
          0                 8           2             5    8     1      -0.2277494397E-01       5    8    1        -0.1290617110E+01      0.1290708416E+01
          0                 9           2             5    8     1      -0.1337618612E-01       5    8    1        -0.7579962768E+00      0.7579980980E+00
          0                10           2             5    8     1      -0.7856061841E-02       5    8    1        -0.4451791208E+00      0.4451801744E+00
                                                   Max.-Head-Change                         Max.-Flux-Residual
  Residual-Control   Outer-Iter.   Inner-Iter.     Column Row Layer    Maximum-Head-Change  Column Row Layer    Maximum-Flux-Residual          L2-NORM 
          0                11           1             5    8     1      -0.4613971418E-02       5    8    1        -0.2614569900E+00      0.2614576090E+00
          0                12           1             5    8     1      -0.2709831031E-02       5    8    1        -0.1535547410E+00      0.1535551046E+00
          0                13           1             5    8     1      -0.1591500444E-02       5    8    1        -0.9018276756E-01      0.9018298111E-01
          0                14           1             5    8     1      -0.9346919856E-03       5    8    1        -0.5296404656E-01      0.5296417198E-01
          0                15           1             5    8     1      -0.5489432553E-03       5    8    1        -0.3110541344E-01      0.3110548711E-01
          0                16           1             5    8     1      -0.3223914791E-03       5    8    1        -0.1826787319E-01      0.1826791645E-01
          0                17           1             5    8     1      -0.1893375771E-03       5    8    1        -0.1072845468E-01      0.1072848011E-01
          0                18           1             5    8     1      -0.1111955045E-03       5    8    1        -0.6300623320E-02      0.6300638264E-02
          0                19           1             5    8     1      -0.6530325015E-04       5    8    1        -0.3700215502E-02      0.3700224388E-02

    ------------------------------------------------
       NWT REQUIRED           19 OUTER ITERATIONS 
       AND A TOTAL OF         29 INNER ITERATIONS.
    ------------------------------------------------

 NO OUTPUT CONTROL FOR STRESS PERIOD   32   TIME STEP   13
 
 SOLVING FOR HEAD 
                                                   Max.-Head-Change                         Max.-Flux-Residual
  Residual-Control   Outer-Iter.   Inner-Iter.     Column Row Layer    Maximum-Head-Change  Column Row Layer    Maximum-Flux-Residual          L2-NORM 
          0                 1           2             5    6     1       0.2315484789E+01       5    6    1         0.1255343824E+03      0.2388260115E+03
          0                 2           2             4    7     1      -0.1428473676E+01       4    7    1        -0.7784290476E+02      0.1208130169E+03
          0                 3           2             4    7     1      -0.7067287810E+00       4    6    1        -0.3861024182E+02      0.6854479104E+02
          0                 4           2             4    6     1      -0.4223646490E+00       4    6    1        -0.2350942772E+02      0.3501700576E+02
          0                 5           2             5    7     1      -0.1734253437E+00       5    7    1        -0.9622391370E+01      0.1786674348E+02
          0                 6           2             5    7     1      -0.1042809664E+00       5    7    1        -0.5786606788E+01      0.9547695798E+01
          0                 7           2             5    7     1      -0.6271866006E-01       5    7    1        -0.3479487802E+01      0.5762824314E+01
          0                 8           2             5    7     1      -0.3772965108E-01       5    7    1        -0.2092711966E+01      0.3487051257E+01
          0                 9           2             5    7     1      -0.2270172586E-01       5    7    1        -0.1258919302E+01      0.2110146161E+01
          0                10           2             5    7     1      -0.1366221788E-01       5    7    1        -0.7574889494E+00      0.1277033147E+01
                                                   Max.-Head-Change                         Max.-Flux-Residual
  Residual-Control   Outer-Iter.   Inner-Iter.     Column Row Layer    Maximum-Head-Change  Column Row Layer    Maximum-Flux-Residual          L2-NORM 
          0                11           2             5    7     1      -0.8223680930E-02       5    7    1        -0.4558697402E+00      0.7729022422E+00
          0                12           2             5    7     1      -0.4950974565E-02       5    7    1        -0.2744022693E+00      0.4678186983E+00
          0                13           2             5    7     1      -0.2981201980E-02       5    7    1        -0.1652014143E+00      0.2831778368E+00
          0                14           2             5    7     1      -0.1795417209E-02       5    7    1        -0.9947542541E-01      0.1714225142E+00
          0                15           2             5    7     1      -0.1081458332E-02       5    7    1        -0.5990883075E-01      0.1037771571E+00
          0                16           2             5    7     1      -0.6515112118E-03       5    7    1        -0.3608577423E-01      0.6282890754E-01
          0                17           2             5    7     1      -0.3925537011E-03       5    7    1        -0.2173945408E-01      0.3803993014E-01
          0                18           2             5    7     1      -0.2365586498E-03       5    7    1        -0.1309863547E-01      0.2303250170E-01
          0                19           2             5    7     1      -0.1425734827E-03       5    7    1        -0.7893430611E-02      0.1394641349E-01
          0                20           1             5    7     1      -0.8594034169E-04       5    7    1        -0.4757353888E-02      0.8445062998E-02

    ------------------------------------------------
       NWT REQUIRED           20 OUTER ITERATIONS 
       AND A TOTAL OF         39 INNER ITERATIONS.
    ------------------------------------------------

 NO OUTPUT CONTROL FOR STRESS PERIOD   32   TIME STEP   14
 
 SOLVING FOR HEAD 
                                                   Max.-Head-Change                         Max.-Flux-Residual
  Residual-Control   Outer-Iter.   Inner-Iter.     Column Row Layer    Maximum-Head-Change  Column Row Layer    Maximum-Flux-Residual          L2-NORM 
          0                 1           2             5    7     1       0.2377986257E+01       5    7    1         0.1263796581E+03      0.2862077833E+03
          0                 2           2             4    7     1      -0.8353720206E+00       4    7    1        -0.4558896791E+02      0.7734458989E+02
          0                 3           2             4    7     1      -0.5121416533E+00       4    7    1        -0.2793123484E+02      0.4742133770E+02
          0                 4           2             4    7     1      -0.3141320617E+00       4    7    1        -0.1712446164E+02      0.2912950920E+02
          0                 5           2             4    7     1      -0.1927644644E+00       4    7    1        -0.1050388690E+02      0.1790045531E+02
          0                 6           2             4    7     1      -0.1183361188E+00       4    7    1        -0.6445782157E+01      0.1100384840E+02
          0                 7           2             4    7     1      -0.7267217315E-01       4    7    1        -0.3957090777E+01      0.6766318164E+01
          0                 8           2             4    7     1      -0.4464426862E-01       4    7    1        -0.2430165787E+01      0.4161696223E+01
          0                 9           2             4    7     1      -0.2743452536E-01       4    7    1        -0.1492936975E+01      0.2560256829E+01
          0                10           2             4    7     1      -0.1686365902E-01       4    7    1        -0.9174452357E+00      0.1575356872E+01
                                                   Max.-Head-Change                         Max.-Flux-Residual
  Residual-Control   Outer-Iter.   Inner-Iter.     Column Row Layer    Maximum-Head-Change  Column Row Layer    Maximum-Flux-Residual          L2-NORM 
          0                11           2             4    7     1      -0.1036855294E-01       4    7    1        -0.5639497416E+00      0.9694946690E+00
          0                12           2             4    7     1      -0.6376562666E-02       4    7    1        -0.3467461330E+00      0.5967236394E+00
          0                13           2             4    7     1      -0.3922366571E-02       4    7    1        -0.2132475479E+00      0.3673279609E+00
          0                14           2             4    7     1      -0.2413206025E-02       4    7    1        -0.1311742644E+00      0.2261415510E+00
          0                15           2             4    7     1      -0.1484969561E-02       4    7    1        -0.8070437362E-01      0.1392342430E+00
          0                16           2             4    7     1      -0.9139248399E-03       4    7    1        -0.4966170878E-01      0.8573251902E-01
          0                17           2             4    7     1      -0.5625570845E-03       4    7    1        -0.3056436014E-01      0.5279273963E-01
          0                18           2             4    7     1      -0.3463217982E-03       4    7    1        -0.1881358158E-01      0.3251081004E-01
          0                19           2             4    7     1      -0.2132281685E-03       4    7    1        -0.1158201579E-01      0.2002178487E-01
          0                20           1             4    7     1      -0.1312972730E-03       4    7    1        -0.7130956390E-02      0.1233093787E-01
          0                21           1             4    7     1      -0.8085529852E-04       4    7    1        -0.4390937628E-02      0.7594602718E-02

    ------------------------------------------------
       NWT REQUIRED           21 OUTER ITERATIONS 
       AND A TOTAL OF         40 INNER ITERATIONS.
    ------------------------------------------------

 NO OUTPUT CONTROL FOR STRESS PERIOD   32   TIME STEP   15
 
 SOLVING FOR HEAD 
                                                   Max.-Head-Change                         Max.-Flux-Residual
  Residual-Control   Outer-Iter.   Inner-Iter.     Column Row Layer    Maximum-Head-Change  Column Row Layer    Maximum-Flux-Residual          L2-NORM 
          0                 1           2             4    6     1       0.2426997265E+01       4    6    1         0.1287782659E+03      0.3002719450E+03
          0                 2           2             5    8     1      -0.6405166534E+00       5    8    1        -0.3556750644E+02      0.6591570097E+02
          0                 3           2             5    8     1      -0.3854499552E+00       5    8    1        -0.2137282979E+02      0.4032130115E+02
          0                 4           2             5    8     1      -0.2321181484E+00       5    8    1        -0.1286323107E+02      0.2471631584E+02
          0                 5           2             5    8     1      -0.1398768174E+00       5    8    1        -0.7746614230E+01      0.1515696641E+02
          0                 6           2             5    8     1      -0.8434729624E-01       5    8    1        -0.4668438540E+01      0.9298269492E+01
          0                 7           2             5    8     1      -0.5089544390E-01       5    8    1        -0.2815268731E+01      0.5706072787E+01
          0                 8           2             5    8     1      -0.3073000751E-01       5    8    1        -0.1698830449E+01      0.3502724193E+01
          0                 9           2             5    8     1      -0.1856590881E-01       5    8    1        -0.1025783604E+01      0.2150785174E+01
          0                10           2             5    8     1      -0.1122362979E-01       5    8    1        -0.6197702166E+00      0.1320993029E+01
                                                   Max.-Head-Change                         Max.-Flux-Residual
  Residual-Control   Outer-Iter.   Inner-Iter.     Column Row Layer    Maximum-Head-Change  Column Row Layer    Maximum-Flux-Residual          L2-NORM 
          0                11           2             5    8     1      -0.6789031313E-02       5    8    1        -0.3746870023E+00      0.8115348956E+00
          0                12           2             5    8     1      -0.4108974323E-02       5    8    1        -0.2266539493E+00      0.4986646698E+00
          0                13           2             5    8     1      -0.2488306969E-02       5    8    1        -0.1371855773E+00      0.3064763527E+00
          0                14           2             4    7     1      -0.1509487027E-02       5    8    1        -0.8308026825E-01      0.1883931864E+00
          0                15           2             4    7     1      -0.9399637159E-03       4    7    1        -0.5054538087E-01      0.1158261781E+00
          0                16           2             4    7     1      -0.5850681695E-03       4    7    1        -0.3147294442E-01      0.7122223071E-01
          0                17           2             4    7     1      -0.3640178945E-03       4    7    1        -0.1958879372E-01      0.4380122089E-01
          0                18           2             4    7     1      -0.2263950046E-03       4    7    1        -0.1218707850E-01      0.2694099270E-01
          0                19           2             4    7     1      -0.1407490632E-03       4    7    1        -0.7579142303E-02      0.1657269177E-01
          0                20           1             4    7     1      -0.8747123117E-04       4    7    1        -0.4711679589E-02      0.1019577672E-01

    ------------------------------------------------
       NWT REQUIRED           20 OUTER ITERATIONS 
       AND A TOTAL OF         39 INNER ITERATIONS.
    ------------------------------------------------

 NO OUTPUT CONTROL FOR STRESS PERIOD   32   TIME STEP   16
 
 SOLVING FOR HEAD 
                                                   Max.-Head-Change                         Max.-Flux-Residual
  Residual-Control   Outer-Iter.   Inner-Iter.     Column Row Layer    Maximum-Head-Change  Column Row Layer    Maximum-Flux-Residual          L2-NORM 
          0                 1           2             4    7     1       0.2393087084E+01       4    6    1         0.1268117103E+03      0.2850387315E+03
          0                 2           2             5    8     1      -0.6815625146E+00       5    8    1        -0.3767396534E+02      0.7670117530E+02
          0                 3           2             5    8     1      -0.3768221650E+00       5    8    1        -0.2077319965E+02      0.4538875418E+02
          0                 4           2             5    8     1      -0.2283528033E+00       5    8    1        -0.1258367783E+02      0.2783446904E+02
          0                 5           2             5    8     1      -0.1384447747E+00       5    8    1        -0.7625873910E+01      0.1707501414E+02
          0                 6           2             5    7     1      -0.8511880879E-01       5    7    1        -0.4629357557E+01      0.1047780198E+02
          0                 7           2             5    7     1      -0.5233665151E-01       5    7    1        -0.2846782918E+01      0.6431307660E+01
          0                 8           2             5    7     1      -0.3217562533E-01       5    7    1        -0.1750335456E+01      0.3948573626E+01
          0                 9           2             5    7     1      -0.1977864307E-01       5    7    1        -0.1076043565E+01      0.2424852693E+01
          0                10           2             5    7     1      -0.1215686356E-01       5    7    1        -0.6614358114E+00      0.1489455285E+01
                                                   Max.-Head-Change                         Max.-Flux-Residual
  Residual-Control   Outer-Iter.   Inner-Iter.     Column Row Layer    Maximum-Head-Change  Column Row Layer    Maximum-Flux-Residual          L2-NORM 
          0                11           2             5    7     1      -0.7471514653E-02       5    7    1        -0.4065386763E+00      0.9150816563E+00
          0                12           2             5    7     1      -0.4591596995E-02       5    7    1        -0.2498496688E+00      0.5623105214E+00
          0                13           2             5    7     1      -0.2821579467E-02       5    7    1        -0.1535409790E+00      0.3455975527E+00
          0                14           2             5    7     1      -0.1733800595E-02       5    7    1        -0.9435041252E-01      0.2124406782E+00
          0                15           2             4    8     1      -0.1065898692E-02       5    7    1        -0.5797518515E-01      0.1306087006E+00
          0                16           2             4    8     1      -0.6555840595E-03       4    8    1        -0.3564459558E-01      0.8030990589E-01
          0                17           2             4    8     1      -0.4032294798E-03       4    8    1        -0.2192304872E-01      0.4938831254E-01
          0                18           2             4    7     1      -0.2480954069E-03       4    8    1        -0.1348402888E-01      0.3037617603E-01
          0                19           2             4    7     1      -0.1544922421E-03       4    7    1        -0.8307092840E-02      0.1868494892E-01
          0                20           1             4    7     1      -0.9615733826E-04       4    7    1        -0.5172591883E-02      0.1149468173E-01

    ------------------------------------------------
       NWT REQUIRED           20 OUTER ITERATIONS 
       AND A TOTAL OF         39 INNER ITERATIONS.
    ------------------------------------------------

 NO OUTPUT CONTROL FOR STRESS PERIOD   32   TIME STEP   17
 
 SOLVING FOR HEAD 
                                                   Max.-Head-Change                         Max.-Flux-Residual
  Residual-Control   Outer-Iter.   Inner-Iter.     Column Row Layer    Maximum-Head-Change  Column Row Layer    Maximum-Flux-Residual          L2-NORM 
          0                 1           2             4    7     1       0.2367936372E+01       4    6    1         0.1246362392E+03      0.2826853846E+03
          0                 2           2             5    8     1      -0.8194349367E+00       5    8    1        -0.4535259462E+02      0.9228308988E+02
          0                 3           2             4    7     1      -0.3978886151E+00       4    6    1        -0.2148547440E+02      0.4845220985E+02
          0                 4           2             4    6     1      -0.2405974777E+00       4    6    1        -0.1319774071E+02      0.2725282535E+02
          0                 5           2             5    7     1      -0.1383587296E+00       5    7    1        -0.7601080271E+01      0.1519615939E+02
          0                 6           2             5    7     1      -0.8411287768E-01       5    7    1        -0.4622154538E+01      0.8729356963E+01
          0                 7           2             5    7     1      -0.5114201429E-01       5    7    1        -0.2809821764E+01      0.5251798499E+01
          0                 8           2             5    7     1      -0.3109980326E-01       5    7    1        -0.1708422866E+01      0.3183532413E+01
          0                 9           2             5    7     1      -0.1891442397E-01       5    7    1        -0.1038902457E+01      0.1932602714E+01
          0                10           2             5    7     1      -0.1150484532E-01       5    7    1        -0.6318430865E+00      0.1173874908E+01
                                                   Max.-Head-Change                         Max.-Flux-Residual
  Residual-Control   Outer-Iter.   Inner-Iter.     Column Row Layer    Maximum-Head-Change  Column Row Layer    Maximum-Flux-Residual          L2-NORM 
          0                11           2             5    7     1      -0.6998730211E-02       5    7    1        -0.3843223940E+00      0.7133361626E+00
          0                12           2             5    7     1      -0.4258022568E-02       5    7    1        -0.2337937476E+00      0.4336615594E+00
          0                13           2             5    7     1      -0.2590876107E-02       5    7    1        -0.1422395345E+00      0.2637464897E+00
          0                14           2             5    7     1      -0.1576649515E-02       5    7    1        -0.8654813911E-01      0.1604706926E+00
          0                15           2             5    7     1      -0.9595627408E-03       5    7    1        -0.5266777549E-01      0.9767236507E-01
          0                16           2             5    7     1      -0.5840649605E-03       5    7    1        -0.3205397640E-01      0.5947138436E-01
          0                17           2             5    7     1      -0.3555480733E-03       5    7    1        -0.1951050017E-01      0.3622414429E-01
          0                18           2             5    7     1      -0.2164635208E-03       5    7    1        -0.1187693230E-01      0.2207167931E-01
          0                19           2             5    7     1      -0.1318014241E-03       5    7    1        -0.7230850038E-02      0.1345281817E-01
          0                20           1             5    7     1      -0.8026104636E-04       5    7    1        -0.4402743684E-02      0.8202107003E-02

    ------------------------------------------------
       NWT REQUIRED           20 OUTER ITERATIONS 
       AND A TOTAL OF         39 INNER ITERATIONS.
    ------------------------------------------------

 NO OUTPUT CONTROL FOR STRESS PERIOD   32   TIME STEP   18
 
 SOLVING FOR HEAD 
                                                   Max.-Head-Change                         Max.-Flux-Residual
  Residual-Control   Outer-Iter.   Inner-Iter.     Column Row Layer    Maximum-Head-Change  Column Row Layer    Maximum-Flux-Residual          L2-NORM 
          0                 1           2             4    7     1       0.2154850314E+01       4    6    1         0.1132404718E+03      0.2720893920E+03
          0                 2           2             5    8     1      -0.8371334911E+00       5    8    1        -0.4634126488E+02      0.9964447921E+02
          0                 3           2             4    7     1      -0.4725748052E+00       4    7    1        -0.2549522936E+02      0.5210657886E+02
          0                 4           2             4    7     1      -0.2920489101E+00       4    7    1        -0.1582075051E+02      0.3022352181E+02
          0                 5           2             4    7     1      -0.1803999952E+00       4    7    1        -0.9772422062E+01      0.1859365807E+02
          0                 6           2             4    6     1      -0.9633291454E-01       4    6    1        -0.5283555374E+01      0.1029636791E+02
          0                 7           2             4    6     1      -0.5840384481E-01       4    6    1        -0.3218734310E+01      0.6001498793E+01
          0                 8           2             4    6     1      -0.3532540937E-01       4    6    1        -0.1950308915E+01      0.3621379167E+01
          0                 9           2             4    6     1      -0.2134894189E-01       4    6    1        -0.1179375493E+01      0.2196507916E+01
          0                10           2             4    6     1      -0.1289936302E-01       4    6    1        -0.7126947948E+00      0.1333121103E+01
                                                   Max.-Head-Change                         Max.-Flux-Residual
  Residual-Control   Outer-Iter.   Inner-Iter.     Column Row Layer    Maximum-Head-Change  Column Row Layer    Maximum-Flux-Residual          L2-NORM 
          0                11           2             4    6     1      -0.7794054966E-02       4    6    1        -0.4306070511E+00      0.8091536767E+00
          0                12           2             4    6     1      -0.4709772707E-02       4    6    1        -0.2601782759E+00      0.4911313607E+00
          0                13           2             4    6     1      -0.2846368303E-02       4    6    1        -0.1572192184E+00      0.2981079338E+00
          0                14           2             4    6     1      -0.1720444303E-02       4    6    1        -0.9501585723E-01      0.1809510873E+00
          0                15           2             4    6     1      -0.1040036254E-02       4    6    1        -0.5743084997E-01      0.1098401554E+00
          0                16           2             4    6     1      -0.6288009827E-03       4    6    1        -0.3471784089E-01      0.6667650780E-01
          0                17           2             4    6     1      -0.3802181496E-03       4    6    1        -0.2099021506E-01      0.4047580023E-01
          0                18           2             4    6     1      -0.2299350902E-03       4    6    1        -0.1269216654E-01      0.2457129100E-01
          0                19           2             4    6     1      -0.1390683539E-03       4    6    1        -0.7675509195E-02      0.1491658837E-01
          0                20           1             4    6     1      -0.8412021344E-04       4    6    1        -0.4642255741E-02      0.9055640200E-02

    ------------------------------------------------
       NWT REQUIRED           20 OUTER ITERATIONS 
       AND A TOTAL OF         39 INNER ITERATIONS.
    ------------------------------------------------

 NO OUTPUT CONTROL FOR STRESS PERIOD   32   TIME STEP   19
 
 SOLVING FOR HEAD 
                                                   Max.-Head-Change                         Max.-Flux-Residual
  Residual-Control   Outer-Iter.   Inner-Iter.     Column Row Layer    Maximum-Head-Change  Column Row Layer    Maximum-Flux-Residual          L2-NORM 
          0                 1           2             4    7     1       0.2156436916E+01       4    6    1         0.1127569780E+03      0.2705544201E+03
          0                 2           2             5    8     1      -0.8425229453E+00       5    8    1        -0.4663253436E+02      0.9749062432E+02
          0                 3           2             4    8     1      -0.4965952459E+00       4    8    1        -0.2705506157E+02      0.5403594368E+02
          0                 4           2             4    7     1      -0.2564705051E+00       4    7    1        -0.1382876288E+02      0.2829146399E+02
          0                 5           2             4    7     1      -0.1583465620E+00       4    7    1        -0.8586406715E+01      0.1632896145E+02
          0                 6           2             4    7     1      -0.9766690742E-01       4    7    1        -0.5297812589E+01      0.1000603688E+02
          0                 7           2             4    7     1      -0.6023951947E-01       4    7    1        -0.3267464347E+01      0.6147732421E+01
          0                 8           2             4    7     1      -0.3715579644E-01       4    7    1        -0.2015299524E+01      0.3777832627E+01
          0                 9           2             4    7     1      -0.2291814766E-01       4    7    1        -0.1243022989E+01      0.2321879169E+01
          0                10           2             4    7     1      -0.1413635868E-01       4    7    1        -0.7667015986E+00      0.1427251453E+01
                                                   Max.-Head-Change                         Max.-Flux-Residual
  Residual-Control   Outer-Iter.   Inner-Iter.     Column Row Layer    Maximum-Head-Change  Column Row Layer    Maximum-Flux-Residual          L2-NORM 
          0                11           2             4    7     1      -0.8719634428E-02       4    7    1        -0.4729099697E+00      0.8774464270E+00
          0                12           2             4    7     1      -0.5378479760E-02       4    7    1        -0.2916977284E+00      0.5395051778E+00
          0                13           2             4    7     1      -0.3317565074E-02       4    7    1        -0.1799235349E+00      0.3317580872E+00
          0                14           2             4    7     1      -0.2046333173E-02       4    7    1        -0.1109791463E+00      0.2040302833E+00
          0                15           2             4    7     1      -0.1262201672E-02       4    7    1        -0.6845286179E-01      0.1254907065E+00
          0                16           2             4    7     1      -0.7785300417E-03       4    7    1        -0.4222184522E-01      0.7719144648E-01
          0                17           2             4    7     1      -0.4801921799E-03       4    7    1        -0.2604215390E-01      0.4748588987E-01
          0                18           2             4    7     1      -0.2961739667E-03       4    7    1        -0.1606236773E-01      0.2921427352E-01
          0                19           2             4    7     1      -0.1826711279E-03       4    7    1        -0.9906818818E-02      0.1797455846E-01
          0                20           1             4    7     1      -0.1126635464E-03       4    7    1        -0.6110123935E-02      0.1105991284E-01
          0                21           1             4    7     1      -0.6948431427E-04       4    7    1        -0.3768393322E-02      0.6805709051E-02

    ------------------------------------------------
       NWT REQUIRED           21 OUTER ITERATIONS 
       AND A TOTAL OF         40 INNER ITERATIONS.
    ------------------------------------------------

 NO OUTPUT CONTROL FOR STRESS PERIOD   32   TIME STEP   20
 
 SOLVING FOR HEAD 
                                                   Max.-Head-Change                         Max.-Flux-Residual
  Residual-Control   Outer-Iter.   Inner-Iter.     Column Row Layer    Maximum-Head-Change  Column Row Layer    Maximum-Flux-Residual          L2-NORM 
          0                 1           2             4    7     1       0.2157367859E+01       4    7    1         0.1126975179E+03      0.2690139996E+03
          0                 2           2             5    8     1      -0.8489699427E+00       5    8    1        -0.4690166847E+02      0.9899806206E+02
          0                 3           2             5    8     1      -0.5120661226E+00       5    8    1        -0.2834533331E+02      0.5797323353E+02
          0                 4           2             4    8     1      -0.3053471249E+00       4    8    1        -0.1674439569E+02      0.2893694144E+02
          0                 5           2             4    7     1      -0.1427476272E+00       4    7    1        -0.7682738705E+01      0.1556315677E+02
          0                 6           2             4    7     1      -0.8826145909E-01       4    7    1        -0.4779957439E+01      0.8887139057E+01
          0                 7           2             4    7     1      -0.5439652651E-01       4    7    1        -0.2953338609E+01      0.5384169111E+01
          0                 8           2             4    7     1      -0.3347905299E-01       4    7    1        -0.1819625744E+01      0.3293415606E+01
          0                 9           2             4    7     1      -0.2059167937E-01       4    7    1        -0.1119756619E+01      0.2017335112E+01
          0                10           2             4    7     1      -0.1266054675E-01       4    7    1        -0.6886676064E+00      0.1235942355E+01
                                                   Max.-Head-Change                         Max.-Flux-Residual
  Residual-Control   Outer-Iter.   Inner-Iter.     Column Row Layer    Maximum-Head-Change  Column Row Layer    Maximum-Flux-Residual          L2-NORM 
          0                11           2             4    7     1      -0.7782284892E-02       4    7    1        -0.4233981245E+00      0.7572548683E+00
          0                12           2             4    7     1      -0.4782762486E-02       4    7    1        -0.2602476631E+00      0.4639849240E+00
          0                13           2             4    7     1      -0.2938861799E-02       4    7    1        -0.1599351350E+00      0.2843041748E+00
          0                14           2             4    7     1      -0.1805573515E-02       4    7    1        -0.9827219996E-01      0.1742125039E+00
          0                15           2             4    7     1      -0.1109154056E-02       4    7    1        -0.6037453733E-01      0.1067556297E+00
          0                16           2             4    7     1      -0.6812607049E-03       4    7    1        -0.3708669512E-01      0.6542084435E-01
          0                17           2             4    7     1      -0.4183917893E-03       4    7    1        -0.2277863179E-01      0.4009165134E-01
          0                18           2             4    7     1      -0.2569239249E-03       4    7    1        -0.1398897330E-01      0.2456986842E-01
          0                19           2             4    7     1      -0.1577540432E-03       4    7    1        -0.8590055244E-02      0.1505780129E-01
          0                20           1             4    7     1      -0.9685314988E-04       4    7    1        -0.5274252647E-02      0.9228455281E-02

    ------------------------------------------------
       NWT REQUIRED           20 OUTER ITERATIONS 
       AND A TOTAL OF         39 INNER ITERATIONS.
    ------------------------------------------------

 NO OUTPUT CONTROL FOR STRESS PERIOD   32   TIME STEP   21
 
 SOLVING FOR HEAD 
                                                   Max.-Head-Change                         Max.-Flux-Residual
  Residual-Control   Outer-Iter.   Inner-Iter.     Column Row Layer    Maximum-Head-Change  Column Row Layer    Maximum-Flux-Residual          L2-NORM 
          0                 1           2             4    7     1       0.2145968604E+01       4    7    1         0.1120992290E+03      0.2676131051E+03
          0                 2           2             5    8     1      -0.8545756771E+00       5    8    1        -0.4719557212E+02      0.1002113028E+03
          0                 3           2             5    8     1      -0.5145716965E+00       5    8    1        -0.2853361609E+02      0.5768693930E+02
          0                 4           2             4    8     1      -0.2884241976E+00       4    8    1        -0.1572377039E+02      0.3209333948E+02
          0                 5           2             4    8     1      -0.1756376697E+00       4    8    1        -0.9644072777E+01      0.1671984426E+02
          0                 6           2             4    8     1      -0.1065932427E+00       4    8    1        -0.5867875651E+01      0.9919732504E+01
          0                 7           2             4    7     1      -0.5575066422E-01       4    7    1        -0.3019789857E+01      0.5080205343E+01
          0                 8           2             4    7     1      -0.3430642159E-01       4    7    1        -0.1865419649E+01      0.2990049499E+01
          0                 9           2             4    7     1      -0.2106502657E-01       4    7    1        -0.1147371798E+01      0.1809870131E+01
          0                10           2             4    7     1      -0.1292059361E-01       4    7    1        -0.7043669657E+00      0.1100335019E+01
                                                   Max.-Head-Change                         Max.-Flux-Residual
  Residual-Control   Outer-Iter.   Inner-Iter.     Column Row Layer    Maximum-Head-Change  Column Row Layer    Maximum-Flux-Residual          L2-NORM 
          0                11           2             4    7     1      -0.7920028744E-02       4    7    1        -0.4319858229E+00      0.6694266882E+00
          0                12           2             4    7     1      -0.4852602829E-02       4    7    1        -0.2647773190E+00      0.4073367065E+00
          0                13           2             4    7     1      -0.2972097288E-02       4    7    1        -0.1622194659E+00      0.2478834566E+00
          0                14           2             4    7     1      -0.1819746564E-02       4    7    1        -0.9935021310E-01      0.1508622891E+00
          0                15           2             4    7     1      -0.1113860094E-02       4    7    1        -0.6082695522E-01      0.9182274394E-01
          0                16           2             4    7     1      -0.6816028137E-03       4    7    1        -0.3723028769E-01      0.5589244539E-01
          0                17           2             4    7     1      -0.4169852872E-03       4    7    1        -0.2278130546E-01      0.3402404449E-01
          0                18           2             4    7     1      -0.2550383471E-03       4    7    1        -0.1393638761E-01      0.2071312295E-01
          0                19           2             4    7     1      -0.1559523096E-03       4    7    1        -0.8523498839E-02      0.1261040747E-01
          0                20           1             4    7     1      -0.9534225538E-04       4    7    1        -0.5211800642E-02      0.7677748542E-02

    ------------------------------------------------
       NWT REQUIRED           20 OUTER ITERATIONS 
       AND A TOTAL OF         39 INNER ITERATIONS.
    ------------------------------------------------

 NO OUTPUT CONTROL FOR STRESS PERIOD   32   TIME STEP   22
 
 SOLVING FOR HEAD 
                                                   Max.-Head-Change                         Max.-Flux-Residual
  Residual-Control   Outer-Iter.   Inner-Iter.     Column Row Layer    Maximum-Head-Change  Column Row Layer    Maximum-Flux-Residual          L2-NORM 
          0                 1           2             4    7     1       0.2134325499E+01       4    7    1         0.1114852660E+03      0.2663357577E+03
          0                 2           2             5    8     1      -0.8585496509E+00       5    8    1        -0.4747629963E+02      0.9924606108E+02
          0                 3           2             5    8     1      -0.5179338419E+00       5    8    1        -0.2866218491E+02      0.5936789286E+02
          0                 4           2             5    8     1      -0.3109147905E+00       5    8    1        -0.1728934327E+02      0.3422080169E+02
          0                 5           2             4    8     1      -0.1607677693E+00       4    8    1        -0.8787421084E+01      0.1765150929E+02
          0                 6           2             4    8     1      -0.9784143062E-01       4    8    1        -0.5373893633E+01      0.9586548356E+01
          0                 7           2             4    8     1      -0.5941079887E-01       4    8    1        -0.3268610700E+01      0.5740064291E+01
          0                 8           2             4    8     1      -0.3605004308E-01       4    8    1        -0.1984329325E+01      0.3492869796E+01
          0                 9           2             4    8     1      -0.2187271597E-01       4    8    1        -0.1203988897E+01      0.2130307610E+01
          0                10           2             4    7     1      -0.1337061555E-01       4    8    1        -0.7304841035E+00      0.1299792358E+01
                                                   Max.-Head-Change                         Max.-Flux-Residual
  Residual-Control   Outer-Iter.   Inner-Iter.     Column Row Layer    Maximum-Head-Change  Column Row Layer    Maximum-Flux-Residual          L2-NORM 
          0                11           2             4    7     1      -0.8277468483E-02       4    7    1        -0.4474926935E+00      0.7932042412E+00
          0                12           2             4    7     1      -0.5120544137E-02       4    7    1        -0.2770066229E+00      0.4841375607E+00
          0                13           2             4    7     1      -0.3165413171E-02       4    7    1        -0.1713441646E+00      0.2955445925E+00
          0                14           2             4    7     1      -0.1955517890E-02       4    7    1        -0.1059123319E+00      0.1804444110E+00
          0                15           2             4    7     1      -0.1207340783E-02       4    7    1        -0.6542488683E-01      0.1101855579E+00
          0                16           2             4    7     1      -0.7449936764E-03       4    7    1        -0.4039039319E-01      0.6729165953E-01
          0                17           2             4    7     1      -0.4594586171E-03       4    7    1        -0.2492123828E-01      0.4110057319E-01
          0                18           2             4    7     1      -0.2832216421E-03       4    7    1        -0.1536858571E-01      0.2510612754E-01
          0                19           2             4    7     1      -0.1745044884E-03       4    7    1        -0.9472964839E-02      0.1533742110E-01
          0                20           1             4    7     1      -0.1074730857E-03       4    7    1        -0.5836325094E-02      0.9370476477E-02
          0                21           1             4    7     1      -0.6616336990E-04       4    7    1        -0.3594241567E-02      0.5725376123E-02

    ------------------------------------------------
       NWT REQUIRED           21 OUTER ITERATIONS 
       AND A TOTAL OF         40 INNER ITERATIONS.
    ------------------------------------------------

 NO OUTPUT CONTROL FOR STRESS PERIOD   32   TIME STEP   23
 
 SOLVING FOR HEAD 
                                                   Max.-Head-Change                         Max.-Flux-Residual
  Residual-Control   Outer-Iter.   Inner-Iter.     Column Row Layer    Maximum-Head-Change  Column Row Layer    Maximum-Flux-Residual          L2-NORM 
          0                 1           2             4    7     1       0.2123512100E+01       4    7    1         0.1109223012E+03      0.2653034728E+03
          0                 2           2             5    8     1      -0.8204369531E+00       5    8    1        -0.4534896555E+02      0.9602966295E+02
          0                 3           2             5    7     1      -0.5035979076E+00       5    7    1        -0.2743128799E+02      0.5885971409E+02
          0                 4           2             5    8     1      -0.2984880271E+00       5    8    1        -0.1656039230E+02      0.3373474636E+02
          0                 5           2             5    6     1      -0.1685614299E+00       5    6    1        -0.9380125466E+01      0.1924592435E+02
          0                 6           2             5    6     1      -0.1011313650E+00       5    6    1        -0.5622921505E+01      0.1065928901E+02
          0                 7           2             4    8     1      -0.5617538833E-01       4    8    1        -0.3085662477E+01      0.5665122945E+01
          0                 8           2             4    7     1      -0.3458641706E-01       4    8    1        -0.1876612405E+01      0.3350235783E+01
          0                 9           2             4    7     1      -0.2137020650E-01       4    7    1        -0.1157330589E+01      0.2035666009E+01
          0                10           2             4    7     1      -0.1319682455E-01       4    7    1        -0.7150384078E+00      0.1241764778E+01
                                                   Max.-Head-Change                         Max.-Flux-Residual
  Residual-Control   Outer-Iter.   Inner-Iter.     Column Row Layer    Maximum-Head-Change  Column Row Layer    Maximum-Flux-Residual          L2-NORM 
          0                11           2             4    7     1      -0.8145110424E-02       4    7    1        -0.4415287754E+00      0.7579083782E+00
          0                12           2             4    7     1      -0.5024627486E-02       4    7    1        -0.2724937256E+00      0.4626550103E+00
          0                13           2             4    7     1      -0.3098155568E-02       4    7    1        -0.1680872101E+00      0.2824523248E+00
          0                14           2             4    7     1      -0.1909447382E-02       4    7    1        -0.1036350416E+00      0.1724566622E+00
          0                15           2             4    7     1      -0.1176330098E-02       4    7    1        -0.6386824569E-01      0.1053077652E+00
          0                16           2             4    7     1      -0.7244007131E-03       4    7    1        -0.3934427901E-01      0.6431079069E-01
          0                17           2             4    7     1      -0.4459303101E-03       4    7    1        -0.2422743628E-01      0.3927781486E-01
          0                18           2             4    7     1      -0.2744120373E-03       4    7    1        -0.1491326830E-01      0.2399096695E-01
          0                19           2             4    7     1      -0.1688092596E-03       4    7    1        -0.9176714265E-02      0.1465487863E-01
          0                20           1             4    7     1      -0.1038136800E-03       4    7    1        -0.5644941228E-02      0.8952575653E-02
          0                21           1             4    7     1      -0.6382426510E-04       4    7    1        -0.3471344282E-02      0.5501719600E-02

    ------------------------------------------------
       NWT REQUIRED           21 OUTER ITERATIONS 
       AND A TOTAL OF         40 INNER ITERATIONS.
    ------------------------------------------------

 NO OUTPUT CONTROL FOR STRESS PERIOD   32   TIME STEP   24
 
 SOLVING FOR HEAD 
                                                   Max.-Head-Change                         Max.-Flux-Residual
  Residual-Control   Outer-Iter.   Inner-Iter.     Column Row Layer    Maximum-Head-Change  Column Row Layer    Maximum-Flux-Residual          L2-NORM 
          0                 1           2             4    7     1       0.2114314885E+01       4    7    1         0.1104480727E+03      0.2642887235E+03
          0                 2           2             5    7     1      -0.8248188373E+00       5    7    1        -0.4503103116E+02      0.9400552876E+02
          0                 3           2             5    7     1      -0.5052638302E+00       5    7    1        -0.2757677749E+02      0.5749414993E+02
          0                 4           2             5    7     1      -0.3095364787E+00       5    7    1        -0.1689312298E+02      0.3528987858E+02
          0                 5           2             5    8     1      -0.1712406367E+00       5    8    1        -0.9507620678E+01      0.1969360137E+02
          0                 6           2             5    8     1      -0.9983157082E-01       5    8    1        -0.5561971888E+01      0.1162482216E+02
          0                 7           2             4    8     1      -0.5737923803E-01       5    6    1        -0.3149164525E+01      0.6350200298E+01
          0                 8           2             4    8     1      -0.3490805793E-01       4    8    1        -0.1917592092E+01      0.3795689820E+01
          0                 9           2             4    7     1      -0.2143178756E-01       4    7    1        -0.1166316992E+01      0.2304021459E+01
          0                10           2             4    7     1      -0.1316591655E-01       4    7    1        -0.7167026897E+00      0.1401881094E+01
                                                   Max.-Head-Change                         Max.-Flux-Residual
  Residual-Control   Outer-Iter.   Inner-Iter.     Column Row Layer    Maximum-Head-Change  Column Row Layer    Maximum-Flux-Residual          L2-NORM 
          0                11           2             4    7     1      -0.8085976137E-02       4    7    1        -0.4402605993E+00      0.8533676054E+00
          0                12           2             4    7     1      -0.4965058587E-02       4    7    1        -0.2703795694E+00      0.5195789551E+00
          0                13           2             4    7     1      -0.3048152631E-02       4    7    1        -0.1660162001E+00      0.3164052657E+00
          0                14           2             4    7     1      -0.1871002501E-02       4    7    1        -0.1019174098E+00      0.1927119760E+00
          0                15           2             4    7     1      -0.1148260073E-02       4    7    1        -0.6255644659E-01      0.1173930730E+00
          0                16           2             4    7     1      -0.7045900358E-03       4    7    1        -0.3839054545E-01      0.7152212761E-01
          0                17           2             4    7     1      -0.4322796944E-03       4    7    1        -0.2355629785E-01      0.4358107271E-01
          0                18           2             4    7     1      -0.2651715411E-03       4    7    1        -0.1445180437E-01      0.2655892262E-01
          0                19           2             4    7     1      -0.1626388515E-03       4    7    1        -0.8864842290E-02      0.1618727709E-01
          0                20           1             4    7     1      -0.9973751310E-04       4    7    1        -0.5436951029E-02      0.9866974270E-02

    ------------------------------------------------
       NWT REQUIRED           20 OUTER ITERATIONS 
       AND A TOTAL OF         39 INNER ITERATIONS.
    ------------------------------------------------

 NO OUTPUT CONTROL FOR STRESS PERIOD   32   TIME STEP   25
 
 SOLVING FOR HEAD 
                                                   Max.-Head-Change                         Max.-Flux-Residual
  Residual-Control   Outer-Iter.   Inner-Iter.     Column Row Layer    Maximum-Head-Change  Column Row Layer    Maximum-Flux-Residual          L2-NORM 
          0                 1           2             4    7     1       0.2103999641E+01       4    7    1         0.1099056522E+03      0.2633338357E+03
          0                 2           2             5    7     1      -0.7939249520E+00       5    7    1        -0.4323061057E+02      0.9752349582E+02
          0                 3           2             5    7     1      -0.4856744680E+00       5    7    1        -0.2655159727E+02      0.5390563759E+02
          0                 4           2             5    7     1      -0.2970156845E+00       5    7    1        -0.1623512179E+02      0.3306927015E+02
          0                 5           2             5    7     1      -0.1816727590E+00       5    7    1        -0.9928561120E+01      0.2029261185E+02
          0                 6           2             5    8     1      -0.9852449193E-01       5    8    1        -0.5458116761E+01      0.1139002340E+02
          0                 7           2             5    8     1      -0.5907714420E-01       5    8    1        -0.3288263462E+01      0.6703461845E+01
          0                 8           2             4    8     1      -0.3559478589E-01       5    8    1        -0.1970587672E+01      0.4056225958E+01
          0                 9           2             4    8     1      -0.2189930977E-01       4    8    1        -0.1190533249E+01      0.2464630021E+01
          0                10           2             4    8     1      -0.1344174147E-01       4    8    1        -0.7324176820E+00      0.1454968859E+01
                                                   Max.-Head-Change                         Max.-Flux-Residual
  Residual-Control   Outer-Iter.   Inner-Iter.     Column Row Layer    Maximum-Head-Change  Column Row Layer    Maximum-Flux-Residual          L2-NORM 
          0                11           2             4    8     1      -0.8189609279E-02       4    8    1        -0.4494316843E+00      0.8208193506E+00
          0                12           2             4    8     1      -0.4972455068E-02       4    8    1        -0.2735955634E+00      0.4935538065E+00
          0                13           2             4    8     1      -0.3015411874E-02       4    8    1        -0.1660650957E+00      0.2998552039E+00
          0                14           2             4    8     1      -0.1827938956E-02       4    8    1        -0.1006935097E+00      0.1824685304E+00
          0                15           2             4    8     1      -0.1108048138E-02       4    8    1        -0.6103751655E-01      0.1110762168E+00
          0                16           2             4    8     1      -0.6717256778E-03       4    8    1        -0.3699872908E-01      0.6762995729E-01
          0                17           2             4    8     1      -0.4072696687E-03       4    8    1        -0.2242941667E-01      0.4118433122E-01
          0                18           2             4    8     1      -0.2469654464E-03       4    8    1        -0.1359902434E-01      0.2508394049E-01
          0                19           2             4    8     1      -0.1497808970E-03       4    8    1        -0.8246357551E-02      0.1528009811E-01
          0                20           1             4    7     1      -0.9150346847E-04       4    8    1        -0.5001299317E-02      0.9309335571E-02

    ------------------------------------------------
       NWT REQUIRED           20 OUTER ITERATIONS 
       AND A TOTAL OF         39 INNER ITERATIONS.
    ------------------------------------------------

 NO OUTPUT CONTROL FOR STRESS PERIOD   32   TIME STEP   26
 
 SOLVING FOR HEAD 
                                                   Max.-Head-Change                         Max.-Flux-Residual
  Residual-Control   Outer-Iter.   Inner-Iter.     Column Row Layer    Maximum-Head-Change  Column Row Layer    Maximum-Flux-Residual          L2-NORM 
          0                 1           2             4    7     1       0.2093291348E+01       4    7    1         0.1093348897E+03      0.2623835251E+03
          0                 2           2             4    6     1      -0.8263717721E+00       4    6    1        -0.4512493539E+02      0.9743706645E+02
          0                 3           2             5    7     1      -0.4480729152E+00       5    7    1        -0.2444068587E+02      0.5218620283E+02
          0                 4           2             5    7     1      -0.2745011349E+00       5    7    1        -0.1498197399E+02      0.3180405613E+02
          0                 5           2             5    7     1      -0.1681699036E+00       5    7    1        -0.9177505645E+01      0.1951285591E+02
          0                 6           2             5    7     1      -0.1030371894E+00       5    7    1        -0.5622450507E+01      0.1197520060E+02
          0                 7           2             5    7     1      -0.6313662508E-01       5    7    1        -0.3444834324E+01      0.7351170719E+01
          0                 8           2             5    7     1      -0.3869105437E-01       5    7    1        -0.2110829190E+01      0.4513727361E+01
          0                 9           2             4    8     1      -0.2187399929E-01       4    8    1        -0.1189448364E+01      0.2592735180E+01
          0                10           2             4    8     1      -0.1345012618E-01       4    8    1        -0.7315620539E+00      0.1516062767E+01
                                                   Max.-Head-Change                         Max.-Flux-Residual
  Residual-Control   Outer-Iter.   Inner-Iter.     Column Row Layer    Maximum-Head-Change  Column Row Layer    Maximum-Flux-Residual          L2-NORM 
          0                11           2             4    8     1      -0.8267462695E-02       4    8    1        -0.4498108892E+00      0.9170985785E+00
          0                12           2             4    8     1      -0.5079954510E-02       4    8    1        -0.2764735501E+00      0.5575901958E+00
          0                13           2             4    8     1      -0.3120280339E-02       4    8    1        -0.1698707304E+00      0.3393014786E+00
          0                14           2             4    8     1      -0.1915938828E-02       4    8    1        -0.1043350639E+00      0.2065397346E+00
          0                15           2             4    8     1      -0.1176068958E-02       4    8    1        -0.6406149952E-01      0.1257617979E+00
          0                16           2             4    8     1      -0.7216985901E-03       4    8    1        -0.3932130762E-01      0.7659813577E-01
          0                17           2             4    8     1      -0.4427506674E-03       4    8    1        -0.2412857207E-01      0.4666667657E-01
          0                18           2             4    8     1      -0.2715505887E-03       4    8    1        -0.1480186496E-01      0.2843857256E-01
          0                19           2             4    8     1      -0.1665090201E-03       4    8    1        -0.9078000603E-02      0.1733458463E-01
          0                20           1             4    8     1      -0.1020767984E-03       4    8    1        -0.5566218008E-02      0.1056857345E-01
          0                21           1             4    8     1      -0.6256409025E-04       4    8    1        -0.3412190616E-02      0.6444800537E-02

    ------------------------------------------------
       NWT REQUIRED           21 OUTER ITERATIONS 
       AND A TOTAL OF         40 INNER ITERATIONS.
    ------------------------------------------------

 NO OUTPUT CONTROL FOR STRESS PERIOD   32   TIME STEP   27
 
 SOLVING FOR HEAD 
                                                   Max.-Head-Change                         Max.-Flux-Residual
  Residual-Control   Outer-Iter.   Inner-Iter.     Column Row Layer    Maximum-Head-Change  Column Row Layer    Maximum-Flux-Residual          L2-NORM 
          0                 1           2             4    7     1       0.2083402380E+01       4    7    1         0.1088068967E+03      0.2614341595E+03
          0                 2           2             4    6     1      -0.8313996212E+00       4    6    1        -0.4539774918E+02      0.9641888075E+02
          0                 3           2             4    7     1      -0.4843867075E+00       4    7    1        -0.2611661080E+02      0.5710963717E+02
          0                 4           2             5    7     1      -0.2527995964E+00       5    8    1        -0.1388034329E+02      0.2969811864E+02
          0                 5           2             5    7     1      -0.1548082075E+00       5    7    1        -0.8451594276E+01      0.1817022479E+02
          0                 6           2             5    7     1      -0.9480775019E-01       5    7    1        -0.5175497127E+01      0.1112196897E+02
          0                 7           2             5    7     1      -0.5806670076E-01       5    7    1        -0.3169552660E+01      0.6810488704E+01
          0                 8           2             5    7     1      -0.3556683319E-01       5    7    1        -0.1941233844E+01      0.4171968724E+01
          0                 9           2             5    7     1      -0.2178709092E-01       5    7    1        -0.1189029965E+01      0.2556587021E+01
          0                10           2             5    7     1      -0.1334720943E-01       5    7    1        -0.7283565004E+00      0.1567212917E+01
                                                   Max.-Head-Change                         Max.-Flux-Residual
  Residual-Control   Outer-Iter.   Inner-Iter.     Column Row Layer    Maximum-Head-Change  Column Row Layer    Maximum-Flux-Residual          L2-NORM 
          0                11           2             5    7     1      -0.8177488719E-02       5    7    1        -0.4462030961E+00      0.9610251853E+00
          0                12           2             5    7     1      -0.5010587156E-02       5    7    1        -0.2733754824E+00      0.5894849089E+00
          0                13           2             4    8     1      -0.3071937417E-02       5    7    1        -0.1675042603E+00      0.3616878532E+00
          0                14           2             4    8     1      -0.1885207693E-02       4    8    1        -0.1027083958E+00      0.2219785261E+00
          0                15           2             4    8     1      -0.1157068711E-02       4    8    1        -0.6303068697E-01      0.1362688681E+00
          0                16           2             4    8     1      -0.7102485314E-03       4    8    1        -0.3868575287E-01      0.8367277154E-01
          0                17           2             4    8     1      -0.4360245835E-03       4    8    1        -0.2374658307E-01      0.5138862436E-01
          0                18           2             4    8     1      -0.2677067258E-03       4    8    1        -0.1457808427E-01      0.3156741356E-01
          0                19           2             4    8     1      -0.1643817309E-03       4    8    1        -0.8950499695E-02      0.1939520346E-01
          0                20           1             4    8     1      -0.1009466147E-03       4    8    1        -0.5495913584E-02      0.1191866155E-01
          0                21           1             4    8     1      -0.6199736492E-04       4    8    1        -0.3375024031E-02      0.7325431558E-02

    ------------------------------------------------
       NWT REQUIRED           21 OUTER ITERATIONS 
       AND A TOTAL OF         40 INNER ITERATIONS.
    ------------------------------------------------

 NO OUTPUT CONTROL FOR STRESS PERIOD   32   TIME STEP   28
 
 SOLVING FOR HEAD 
                                                   Max.-Head-Change                         Max.-Flux-Residual
  Residual-Control   Outer-Iter.   Inner-Iter.     Column Row Layer    Maximum-Head-Change  Column Row Layer    Maximum-Flux-Residual          L2-NORM 
          0                 1           2             4    7     1       0.2075885751E+01       4    7    1         0.1084132538E+03      0.2604899968E+03
          0                 2           2             4    6     1      -0.8360441702E+00       4    6    1        -0.4565033731E+02      0.9662814506E+02
          0                 3           2             4    6     1      -0.5120806650E+00       4    6    1        -0.2795135954E+02      0.5939934432E+02
          0                 4           2             4    7     1      -0.2633782854E+00       4    7    1        -0.1420666608E+02      0.3233500049E+02
          0                 5           2             4    8     1      -0.1551667336E+00       4    8    1        -0.8478032202E+01      0.1759816078E+02
          0                 6           2             4    8     1      -0.9466182136E-01       4    8    1        -0.5186988048E+01      0.1053788861E+02
          0                 7           2             4    8     1      -0.5766451340E-01       4    8    1        -0.3163305835E+01      0.6385042017E+01
          0                 8           2             4    8     1      -0.3510570898E-01       4    8    1        -0.1926683977E+01      0.3875124795E+01
          0                 9           2             4    8     1      -0.2136633840E-01       4    8    1        -0.1172867230E+01      0.2352292398E+01
          0                10           2             4    8     1      -0.1300241122E-01       4    8    1        -0.7138119058E+00      0.1427936955E+01
                                                   Max.-Head-Change                         Max.-Flux-Residual
  Residual-Control   Outer-Iter.   Inner-Iter.     Column Row Layer    Maximum-Head-Change  Column Row Layer    Maximum-Flux-Residual          L2-NORM 
          0                11           2             4    8     1      -0.7911926651E-02       4    8    1        -0.4343756463E+00      0.8668362670E+00
          0                12           2             4    8     1      -0.4814093806E-02       4    8    1        -0.2643101561E+00      0.5262329201E+00
          0                13           2             4    8     1      -0.2929036452E-02       4    8    1        -0.1608188919E+00      0.3194719066E+00
          0                14           2             4    8     1      -0.1782029155E-02       4    8    1        -0.9784499213E-01      0.1939548758E+00
          0                15           2             4    8     1      -0.1084140727E-02       4    8    1        -0.5952784101E-01      0.1177555174E+00
          0                16           2             4    8     1      -0.6595352652E-03       4    8    1        -0.3621450850E-01      0.7149462470E-01
          0                17           2             4    8     1      -0.4012106280E-03       4    8    1        -0.2203061603E-01      0.4340863228E-01
          0                18           2             4    8     1      -0.2440559189E-03       4    8    1        -0.1340148080E-01      0.2635654451E-01
          0                19           2             4    8     1      -0.1484530746E-03       4    8    1        -0.8151949762E-02      0.1600330314E-01
          0                20           1             4    8     1      -0.9029673925E-04       4    8    1        -0.4958532686E-02      0.9717147256E-02

    ------------------------------------------------
       NWT REQUIRED           20 OUTER ITERATIONS 
       AND A TOTAL OF         39 INNER ITERATIONS.
    ------------------------------------------------

 NO OUTPUT CONTROL FOR STRESS PERIOD   32   TIME STEP   29
 
 SOLVING FOR HEAD 
                                                   Max.-Head-Change                         Max.-Flux-Residual
  Residual-Control   Outer-Iter.   Inner-Iter.     Column Row Layer    Maximum-Head-Change  Column Row Layer    Maximum-Flux-Residual          L2-NORM 
          0                 1           2             4    7     1       0.2069322581E+01       4    7    1         0.1080725313E+03      0.2595932956E+03
          0                 2           2             4    6     1      -0.8403512310E+00       4    6    1        -0.4588598229E+02      0.9709803272E+02
          0                 3           2             4    6     1      -0.5147066059E+00       4    6    1        -0.2809534546E+02      0.5968960016E+02
          0                 4           2             4    7     1      -0.3122777053E+00       4    7    1        -0.1685362856E+02      0.3584157407E+02
          0                 5           2             4    7     1      -0.1738905195E+00       4    7    1        -0.9425308435E+01      0.1979281543E+02
          0                 6           2             4    8     1      -0.9648993361E-01       4    8    1        -0.5272139616E+01      0.1069060318E+02
          0                 7           2             4    8     1      -0.5885061345E-01       4    8    1        -0.3225443510E+01      0.6345061478E+01
          0                 8           2             4    8     1      -0.3583698161E-01       4    8    1        -0.1966518593E+01      0.3830017136E+01
          0                 9           2             4    8     1      -0.2180874369E-01       4    8    1        -0.1197319720E+01      0.2317699915E+01
          0                10           2             4    8     1      -0.1326811240E-01       4    8    1        -0.7285801802E+00      0.1403009658E+01
                                                   Max.-Head-Change                         Max.-Flux-Residual
  Residual-Control   Outer-Iter.   Inner-Iter.     Column Row Layer    Maximum-Head-Change  Column Row Layer    Maximum-Flux-Residual          L2-NORM 
          0                11           2             4    8     1      -0.8071055380E-02       4    8    1        -0.4432392854E+00      0.8493576147E+00
          0                12           2             4    8     1      -0.4909297592E-02       4    8    1        -0.2696171816E+00      0.5142083979E+00
          0                13           2             4    8     1      -0.2985975761E-02       4    8    1        -0.1639936469E+00      0.3113213979E+00
          0                14           2             4    8     1      -0.1816080727E-02       4    8    1        -0.9974365970E-01      0.1884956183E+00
          0                15           2             4    8     1      -0.1104504963E-02       4    8    1        -0.6066328299E-01      0.1141342353E+00
          0                16           2             4    8     1      -0.6717143092E-03       4    8    1        -0.3689354064E-01      0.6911181091E-01
          0                17           2             4    8     1      -0.4084945911E-03       4    8    1        -0.2243671359E-01      0.4185133628E-01
          0                18           2             4    8     1      -0.2484122589E-03       4    8    1        -0.1364435386E-01      0.2534463856E-01
          0                19           2             4    8     1      -0.1510584048E-03       4    8    1        -0.8297203293E-02      0.1534905380E-01
          0                20           1             4    8     1      -0.9185480038E-04       4    8    1        -0.5045400673E-02      0.9295974120E-02

    ------------------------------------------------
       NWT REQUIRED           20 OUTER ITERATIONS 
       AND A TOTAL OF         39 INNER ITERATIONS.
    ------------------------------------------------

 NO OUTPUT CONTROL FOR STRESS PERIOD   32   TIME STEP   30



 STREAM LISTING     PERIOD     32   STEP       30

 LAYER ROW COL. STREAM  RCH.  FLOW INTO     FLOW TO   FLOW OUT OF   OVRLND.     DIRECT     STREAM       STREAM     STREAM     STREAM   STREAMBED  STREAMBED
                SEG.NO.  NO.  STRM. RCH.    AQUIFER    STRM. RCH.    RUNOFF     PRECIP       ET          HEAD       DEPTH      WIDTH   CONDCTNC.   GRADIENT

   1    1    1     1     1    2.8124E+01  2.5914E-01   2.7865E+01  0.000E+00  0.000E+00  0.000E+00  1.09427E+03  1.223E+00  1.364E+01  6.136E-02  1.408E+00
   1    2    2     1     2    2.7865E+01  4.0087E-01   2.7464E+01  0.000E+00  0.000E+00  0.000E+00  1.08928E+03  1.218E+00  1.358E+01  9.503E-02  1.406E+00
   1    3    3     1     3    2.7464E+01  3.4142E-01   2.7123E+01  0.000E+00  0.000E+00  0.000E+00  1.08363E+03  1.213E+00  1.351E+01  8.103E-02  1.404E+00
   1    3    4     1     4    2.7123E+01  3.1402E-01   2.6809E+01  0.000E+00  0.000E+00  0.000E+00  1.07862E+03  1.209E+00  1.344E+01  7.461E-02  1.403E+00
   1    4    5     2     1    2.4809E+01  3.2738E-01   2.4481E+01  0.000E+00  0.000E+00  0.000E+00  1.07313E+03  1.197E+00  1.200E+01  7.800E-02  1.399E+00
   1    5    6     2     2    2.4481E+01  2.5133E-01   2.4230E+01  0.000E+00  0.000E+00  0.000E+00  1.06770E+03  1.189E+00  1.200E+01  6.000E-02  1.396E+00
   1    6    6     2     3    2.4230E+01  2.5089E-01   2.3979E+01  0.000E+00  0.000E+00  0.000E+00  1.06297E+03  1.181E+00  1.200E+01  6.000E-02  1.394E+00
   1    7    6     2     4    2.3979E+01  2.5044E-01   2.3729E+01  0.000E+00  0.000E+00  0.000E+00  1.05825E+03  1.174E+00  1.200E+01  6.000E-02  1.391E+00
   1    8    6     2     5    2.3729E+01  2.5000E-01   2.3479E+01  0.000E+00  0.000E+00  0.000E+00  1.05353E+03  1.167E+00  1.200E+01  6.000E-02  1.389E+00
   1    3    5     3     1    2.0000E+00  2.8252E-01   1.7175E+00  0.000E+00  0.000E+00  0.000E+00  1.07555E+03  1.909E+00  9.636E+00  7.227E-02  1.955E+00
   1    3    6     3     2    1.7175E+00  2.4905E-01   1.4684E+00  0.000E+00  0.000E+00  0.000E+00  1.07264E+03  1.727E+00  8.909E+00  6.682E-02  1.864E+00
   1    3    7     3     3    1.4684E+00  1.9718E-01   1.2712E+00  0.000E+00  0.000E+00  0.000E+00  1.06987E+03  1.555E+00  8.218E+00  5.547E-02  1.777E+00
   1    4    8     3     4    1.2712E+00  2.2567E-01   1.0456E+00  0.000E+00  0.000E+00  0.000E+00  1.06682E+03  1.364E+00  7.455E+00  6.709E-02  1.682E+00
   1    5    8     3     5    1.0456E+00  1.5790E-01   8.8768E-01  0.000E+00  0.000E+00  0.000E+00  1.06362E+03  1.164E+00  6.655E+00  4.991E-02  1.582E+00
   1    6    8     3     6    8.8768E-01  5.5980E-02   8.3170E-01  0.000E+00  0.000E+00  0.000E+00  1.06158E+03  1.036E+00  6.145E+00  1.844E-02  1.518E+00
   1    5   10     4     1    1.0000E+01  9.0919E-02   9.9091E+00  0.000E+00  0.000E+00  0.000E+00  1.07836E+03  6.368E-01  1.000E+01  2.500E-02  1.212E+00
   1    5    9     4     2    9.9091E+00  1.8158E-01   9.7275E+00  0.000E+00  0.000E+00  0.000E+00  1.07154E+03  6.315E-01  1.000E+01  5.000E-02  1.211E+00
   1    6    8     4     3    9.7275E+00  1.2689E-01   9.6006E+00  0.000E+00  0.000E+00  0.000E+00  1.06381E+03  6.256E-01  1.000E+01  3.500E-02  1.209E+00
   1    6    8     5     1    1.0432E+01  2.2686E-01   1.0205E+01  0.000E+00  0.000E+00  0.000E+00  1.05868E+03  6.790E-01  1.542E+01  6.166E-02  1.226E+00
   1    7    7     5     2    1.0205E+01  2.7894E-01   9.9265E+00  0.000E+00  0.000E+00  0.000E+00  1.05417E+03  6.732E-01  1.519E+01  7.594E-02  1.224E+00
   1    8    7     5     3    9.9265E+00  1.9221E-01   9.7343E+00  0.000E+00  0.000E+00  0.000E+00  1.04992E+03  6.676E-01  1.497E+01  5.241E-02  1.223E+00
   1    8    6     5     4    9.7343E+00  1.3577E-01   9.5985E+00  0.000E+00  0.000E+00  0.000E+00  1.04691E+03  6.637E-01  1.482E+01  3.706E-02  1.221E+00
   1    9    6     6     1    9.5985E+00  2.2097E-01   9.3776E+00  0.000E+00  0.000E+00  0.000E+00  1.04341E+03  6.828E-01  1.200E+01  6.000E-02  1.228E+00
   1   10    7     6     2    9.3776E+00  2.2039E-01   9.1572E+00  0.000E+00  0.000E+00  0.000E+00  1.03885E+03  6.732E-01  1.200E+01  6.000E-02  1.224E+00
   1   11    7     6     3    9.1572E+00  2.1981E-01   8.9374E+00  0.000E+00  0.000E+00  0.000E+00  1.03430E+03  6.636E-01  1.200E+01  6.000E-02  1.221E+00
   1   12    7     6     4    8.9374E+00  2.1923E-01   8.7181E+00  0.000E+00  0.000E+00  0.000E+00  1.02974E+03  6.539E-01  1.200E+01  6.000E-02  1.218E+00
   1   13    7     6     5    8.7181E+00  4.9378E-03   8.7132E+00  0.000E+00  0.000E+00  0.000E+00  1.02656E+03  6.489E-01  1.200E+01  2.400E-02  6.858E-02
   1   14    9     7     1    1.5000E+02  1.4114E+00   1.4859E+02  0.000E+00  0.000E+00  0.000E+00  1.03987E+03  2.288E+00  5.529E+01  5.593E-01  8.412E-01
   1   13    8     7     2    1.4859E+02  2.0765E+00   1.4651E+02  0.000E+00  0.000E+00  0.000E+00  1.03478E+03  2.278E+00  5.525E+01  6.147E-01  1.126E+00
   1   13    7     7     3    1.4651E+02  1.8619E+00   1.4465E+02  0.000E+00  0.000E+00  0.000E+00  1.02969E+03  2.268E+00  5.520E+01  5.583E-01  1.112E+00
   1   13    6     8     1    1.5336E+02  1.1945E+00   1.5217E+02  0.000E+00  0.000E+00  0.000E+00  1.02471E+03  2.836E+00  4.113E+01  4.191E-01  9.501E-01
   1   13    5     8     2    1.5217E+02  4.3369E-01   1.5174E+02  0.000E+00  0.000E+00  0.000E+00  1.01846E+03  2.831E+00  4.104E+01  4.182E-01  3.456E-01
   1   13    4     8     3    1.5174E+02 -1.5504E+00   1.5329E+02  0.000E+00  0.000E+00  0.000E+00  1.01221E+03  2.834E+00  4.110E+01  4.188E+00 -1.234E-01
   1   13    3     8     4    1.5329E+02 -3.2136E+00   1.5650E+02  0.000E+00  0.000E+00  0.000E+00  1.00598E+03  2.851E+00  4.134E+01  4.213E+00 -2.543E-01
   1   13    2     8     5    1.5650E+02 -2.4959E+00   1.5900E+02  0.000E+00  0.000E+00  0.000E+00  9.99746E+02  2.871E+00  4.162E+01  4.242E+00 -1.961E-01
   1   13    1     8     6    1.5900E+02 -1.9944E+00   1.6099E+02  0.000E+00  0.000E+00  0.000E+00  9.94761E+02  2.886E+00  4.184E+01  2.558E+00 -2.598E-01
   1    8    6     9     1    2.3479E+01  0.0000E+00   2.3479E+01  0.000E+00  0.000E+00  0.000E+00  1.08253E+03  3.782E+00  4.000E+00  0.000E+00  2.261E+00
   1    8    5     9     2    2.3479E+01  0.0000E+00   2.3479E+01  0.000E+00  0.000E+00  0.000E+00  1.08203E+03  3.782E+00  4.000E+00  0.000E+00  2.261E+00





UNSATURATED ZONE PACKAGE VOLUMETRIC BUDGET FOR  TIME STEP    30 STRESS PERIOD   32
  ------------------------------------------------------------------------------



     CUMULATIVE VOLUMES      L**3       RATES FOR THIS TIME STEP      L**3/T
     ------------------                 ------------------------

           IN:                                      IN:
           ---                                      ---
        INFILTRATION =  8817870885.3933          INFILTRATION =         624.3265

          OUT:                                     OUT:
          ----                                     ----
              UZF ET =  1115381437.9803                UZF ET =          60.8175
        UZF RECHARGE =  6468098870.8923          UZF RECHARGE =         612.6074

            IN - OUT =  1234390576.5206              IN - OUT =         -49.0983

          STORAGE:                                 STORAGE:
          --------                                 --------
      STORAGE CHANGE =  1235369746.2584        STORAGE CHANGE =         -49.0983

 PERCENT DISCREPANCY IS DIFFERENCE BETWEEN IN-OUT MINUS CHANGE IN STORAGE
 DIVIDED BY THE AVERAGE OF IN AND OUT TIMES 100

 PERCENT DISCREPANCY =          -0.00     PERCENT DISCREPANCY =          -0.00






1
  VOLUMETRIC BUDGET FOR AGRICULTURAL FIELDS AT  END OF TIME STEP   30, STRESS PERIOD  32
  ------------------------------------------------------------------------------

     CUMULATIVE VOLUMES      L**3       RATES FOR THIS TIME STEP      L**3/T
     ------------------                 ------------------------

           IN:                                      IN:
           ---                                      ---
               AG WELLS  =  8343856640.0000                 AG WELLS  =         600.0000
      DIVERSION SEGMENTS =   404876960.0000        DIVERSION SEGMENTS =          23.4787
           GW IRRIGATION =           0.0000             GW IRRIGATION =           0.0000
           SW IRRIGATION =           0.0000             SW IRRIGATION =           0.0000
        SYSTEM LOSSES GW =           0.0000          SYSTEM LOSSES GW =           0.0000
        SYSTEM LOSSES SW =           0.0000          SYSTEM LOSSES SW =           0.0000

                TOTAL IN =  8748733440.0000                  TOTAL IN =         623.4786

          OUT:                                     OUT:
          ----                                     ----
               AG WELLS  =           0.0000                 AG WELLS  =           0.0000
      DIVERSION SEGMENTS =           0.0000        DIVERSION SEGMENTS =           0.0000
           GW IRRIGATION =  8343856640.0000             GW IRRIGATION =         600.0000
           SW IRRIGATION =   404884032.0000             SW IRRIGATION =          23.4791
        SYSTEM LOSSES GW =           0.0000          SYSTEM LOSSES GW =           0.0000
        SYSTEM LOSSES SW =           0.0000          SYSTEM LOSSES SW =           0.0000

               TOTAL OUT =  8748740608.0000                 TOTAL OUT =         623.4791

                IN - OUT =       -7168.0000                  IN - OUT =      -4.8828E-04

     PERCENT DISCREPANCY =          -0.00         PERCENT DISCREPANCY =          -0.00



1
  VOLUMETRIC BUDGET FOR ENTIRE MODEL AT END OF TIME STEP   30, STRESS PERIOD  32
  ------------------------------------------------------------------------------

     CUMULATIVE VOLUMES      L**3       RATES FOR THIS TIME STEP      L**3/T
     ------------------                 ------------------------

           IN:                                      IN:
           ---                                      ---
             STORAGE     =  7206561792.0000               STORAGE     =          66.1294
       CONSTANT HEAD     =           0.0000         CONSTANT HEAD     =           0.0000
     HEAD DEP BOUNDS     =    23577504.0000       HEAD DEP BOUNDS     =           0.2909
      STREAM LEAKAGE     =   998049344.0000        STREAM LEAKAGE     =          12.9103
        UZF RECHARGE     =  6468098560.0000          UZF RECHARGE     =         612.6074
               GW ET     =           0.0000                 GW ET     =           0.0000
     SURFACE LEAKAGE     =           0.0000       SURFACE LEAKAGE     =           0.0000
           AG WELLS      =           0.0000             AG WELLS      =           0.0000

                TOTAL IN = 14696287232.0000                  TOTAL IN =         691.9380

          OUT:                                     OUT:
          ----                                     ----
             STORAGE     =  5552400384.0000               STORAGE     =          82.4085
       CONSTANT HEAD     =           0.0000         CONSTANT HEAD     =           0.0000
     HEAD DEP BOUNDS     =    23498502.0000       HEAD DEP BOUNDS     =           0.2865
      STREAM LEAKAGE     =   776425472.0000        STREAM LEAKAGE     =           9.2542
        UZF RECHARGE     =           0.0000          UZF RECHARGE     =           0.0000
               GW ET     =           0.0000                 GW ET     =           0.0000
     SURFACE LEAKAGE     =           0.0000       SURFACE LEAKAGE     =           0.0000
           AG WELLS      =  8343856640.0000             AG WELLS      =         600.0000

               TOTAL OUT = 14696181760.0000                 TOTAL OUT =         691.9493

                IN - OUT =      105472.0000                  IN - OUT =      -1.1292E-02

     PERCENT DISCREPANCY =           0.00         PERCENT DISCREPANCY =          -0.00






         TIME SUMMARY AT END OF TIME STEP   30 IN STRESS PERIOD   32
                    SECONDS     MINUTES      HOURS       DAYS        YEARS
                    -----------------------------------------------------------
   TIME STEP LENGTH  87667.      1461.1      24.352      1.0147     2.77799E-03
 STRESS PERIOD TIME 2.63000E+06  43833.      730.56      30.440     8.33397E-02
         TOTAL TIME 8.16164E+07 1.36027E+06  22671.      944.63      2.5863    
1
1
                            STRESS PERIOD NO.   33, LENGTH =   2630000.    
                            -----------------------------------------------

                              NUMBER OF TIME STEPS =    30

                               MULTIPLIER FOR DELT =     1.000

                            INITIAL TIME STEP SIZE =   87666.66    

 REUSING NON-PARAMETER GHB CELLS FROM LAST STRESS PERIOD

      2 GHB CELLS

 REUSING STREAM SEGMENT DATA FROM LAST STRESS PERIOD



            AREAL INFILTRATION RATE
 READING ON UNIT   19 WITH FORMAT: (FREE)              

            1           2           3           4           5           6           7           8           9          10
 ........................................................................................................................
   1   1.0000E-10  2.0000E-10   0.000       0.000       0.000       0.000       0.000       0.000       0.000       0.000    
   2   2.0000E-10  1.0000E-10  2.0000E-10   0.000       0.000      8.0000E-10  8.0000E-10  5.0000E-10   0.000       0.000    
   3    0.000      5.0000E-10  1.0000E-10  1.0000E-10  8.0000E-10  8.0000E-10  5.0000E-10  5.0000E-10   0.000       0.000    
   4   8.0000E-10  5.0000E-10  1.0000E-10  1.0000E-10  1.0000E-10  1.0000E-10  1.0000E-10  1.0000E-10  2.0000E-10   0.000    
   5   8.0000E-10  5.0000E-10  1.0000E-10  1.0000E-10  1.0000E-10  1.0000E-10  1.0000E-10  1.0000E-10  1.0000E-10  1.0000E-10
   6   8.0000E-10  5.0000E-10  5.0000E-10  2.0000E-10  2.0000E-10  1.0000E-10  1.0000E-10  1.0000E-10  1.0000E-10  5.0000E-10
   7   8.0000E-10  5.0000E-10  5.0000E-10  2.0000E-10  2.0000E-10  1.0000E-10  1.0000E-10  2.0000E-10  2.0000E-10   0.000    
   8    0.000      5.0000E-10  5.0000E-10  2.0000E-10  2.0000E-10  1.0000E-10  1.0000E-10  2.0000E-10  5.0000E-10   0.000    
   9    0.000      5.0000E-10  5.0000E-10  2.0000E-10  2.0000E-10  1.0000E-10  1.0000E-10  2.0000E-10  5.0000E-10   0.000    
  10    0.000      5.0000E-10  5.0000E-10  2.0000E-10  2.0000E-10  1.0000E-10  1.0000E-10  2.0000E-10  5.0000E-10  8.0000E-10
  11    0.000      1.0000E-10  1.0000E-10  1.0000E-10  1.0000E-10  1.0000E-10  1.0000E-10  2.0000E-10  5.0000E-10   0.000    
  12   1.0000E-10  1.0000E-10  1.0000E-10  1.0000E-10  1.0000E-10  1.0000E-10  1.0000E-10  1.0000E-10  2.0000E-10   0.000    
  13   1.0000E-10  1.0000E-10  2.0000E-10  2.0000E-10  2.0000E-10  2.0000E-10  2.0000E-10  1.0000E-10  1.0000E-10   0.000    
  14    0.000      2.0000E-10  5.0000E-10  5.0000E-10  5.0000E-10  5.0000E-10  5.0000E-10  2.0000E-10  1.0000E-10   0.000    
  15    0.000       0.000      8.0000E-10  8.0000E-10  8.0000E-10  8.0000E-10   0.000       0.000       0.000       0.000    

                  ET RATE =  3.250000E-07

 USING ET EXTINCTION DEPTH FROM PREVIOUS STRESS PERIOD. CURRENT PERIOD IS:      33

 USING EXTINCTION WATER CONTENT FROM PREVIOUS STRESS PERIOD. CURRENT PERIOD IS:      33

 USING AIR ENTRY PRESSURE FROM PREVIOUS STRESS PERIOD. CURRENT PERIOD IS:      33

 USING ROOT PRESSURE HEAD FROM PREVIOUS STRESS PERIOD. CURRENT PERIOD IS:      33

 USING ROOT ACTIVITY FROM PREVIOUS STRESS PERIOD. CURRENT PERIOD IS:      33

 PROCESSING AG STRESS PERIOD DATA

 READING AG STRESS PERIOD DATA

 READING IRRIGATION SEGMENT

 READING IRRIGATION WELL

 READING SUPPLEMENTAL WELL

 END PROCESSING AG STRESS PERIOD DATA OPTIONS
 
 SOLVING FOR HEAD 
                                                   Max.-Head-Change                         Max.-Flux-Residual
  Residual-Control   Outer-Iter.   Inner-Iter.     Column Row Layer    Maximum-Head-Change  Column Row Layer    Maximum-Flux-Residual          L2-NORM 
          0                 1           2             4    7     1       0.2070942560E+01       4    7    1         0.1081783493E+03      0.2587943296E+03
          0                 2           2             5    7     1       0.1215575457E+01       5    7    1         0.6420203535E+02      0.1499426295E+03
          0                 3           2             5    7     1       0.7355276736E+00       5    7    1         0.3886386997E+02      0.8675475177E+02
          0                 4           2             4    7     1       0.4329877336E+00       4    7    1         0.2272929357E+02      0.4753830235E+02
          0                 5           2             4    7     1       0.2619511836E+00       4    7    1         0.1385752635E+02      0.2433427290E+02
          0                 6           2             4    7     1       0.1582858978E+00       4    7    1         0.8372963098E+01      0.1408556853E+02
          0                 7           2             4    7     1       0.9564604754E-01       4    7    1         0.5059500316E+01      0.8446983289E+01
          0                 8           2             4    7     1       0.5779335849E-01       4    7    1         0.3057264290E+01      0.5087907234E+01
          0                 9           2             4    7     1       0.3491959421E-01       4    7    1         0.1847320302E+01      0.3066172982E+01
          0                10           2             4    6     1       0.1771727071E-01       4    6    1         0.9442677182E+00      0.1706544341E+01
                                                   Max.-Head-Change                         Max.-Flux-Residual
  Residual-Control   Outer-Iter.   Inner-Iter.     Column Row Layer    Maximum-Head-Change  Column Row Layer    Maximum-Flux-Residual          L2-NORM 
          0                11           2             4    6     1       0.1053307126E-01       4    6    1         0.5656115871E+00      0.9045780086E+00
          0                12           2             4    6     1       0.6237752634E-02       4    6    1         0.3358373269E+00      0.5269221213E+00
          0                13           2             4    6     1       0.3689245553E-02       4    6    1         0.1987972173E+00      0.3111791853E+00
          0                14           2             4    6     1       0.2181172577E-02       4    6    1         0.1175592839E+00      0.1840628861E+00
          0                15           2             4    6     1       0.1289533457E-02       4    6    1         0.6950139561E-01      0.1088911775E+00
          0                16           2             4    6     1       0.7624605834E-03       4    6    1         0.4109009614E-01      0.6442331300E-01
          0                17           2             4    6     1       0.4508807224E-03       4    6    1         0.2429567225E-01      0.3811740058E-01
          0                18           2             4    6     1       0.2666674488E-03       4    6    1         0.1436752902E-01      0.2255472562E-01
          0                19           2             4    6     1       0.1577402009E-03       4    6    1         0.8497667998E-02      0.1334709228E-01
          0                20           1             4    6     1       0.9332063501E-04       4    6    1         0.5026681825E-02      0.7898959308E-02

    ------------------------------------------------
       NWT REQUIRED           20 OUTER ITERATIONS 
       AND A TOTAL OF         39 INNER ITERATIONS.
    ------------------------------------------------

 NO OUTPUT CONTROL FOR STRESS PERIOD   33   TIME STEP    1
 
 SOLVING FOR HEAD 
                                                   Max.-Head-Change                         Max.-Flux-Residual
  Residual-Control   Outer-Iter.   Inner-Iter.     Column Row Layer    Maximum-Head-Change  Column Row Layer    Maximum-Flux-Residual          L2-NORM 
          0                 1           2             4    7     1       0.2029015950E+01       4    7    1         0.1060763652E+03      0.2467714414E+03
          0                 2           2             4    6     1      -0.8973502966E+00       4    6    1        -0.4899802797E+02      0.1046459100E+03
          0                 3           2             4    6     1      -0.5305632653E+00       4    6    1        -0.2893824776E+02      0.6381122532E+02
          0                 4           2             4    7     1      -0.3171466198E+00       4    7    1        -0.1718708533E+02      0.3607094053E+02
          0                 5           2             5    8     1      -0.1743160160E+00       5    8    1        -0.9608383464E+01      0.2133570269E+02
          0                 6           2             5    8     1      -0.1056403311E+00       5    8    1        -0.5821171292E+01      0.1210081038E+02
          0                 7           2             4    8     1      -0.6294131807E-01       4    8    1        -0.3468089418E+01      0.6710744063E+01
          0                 8           2             4    8     1      -0.3790809937E-01       4    8    1        -0.2101911092E+01      0.3878771426E+01
          0                 9           2             4    8     1      -0.2275890936E-01       4    8    1        -0.1264987347E+01      0.2321280969E+01
          0                10           2             4    8     1      -0.1364688629E-01       4    8    1        -0.7592331933E+00      0.1396246986E+01
                                                   Max.-Head-Change                         Max.-Flux-Residual
  Residual-Control   Outer-Iter.   Inner-Iter.     Column Row Layer    Maximum-Head-Change  Column Row Layer    Maximum-Flux-Residual          L2-NORM 
          0                11           2             5    6     1      -0.8186413835E-02       4    8    1        -0.4551999976E+00      0.8403732683E+00
          0                12           2             5    6     1      -0.4945302702E-02       5    6    1        -0.2732732117E+00      0.5058511132E+00
          0                13           2             5    6     1      -0.2987300763E-02       5    6    1        -0.1650776767E+00      0.3045092365E+00
          0                14           2             5    6     1      -0.1804483198E-02       5    6    1        -0.9971640141E-01      0.1833207639E+00
          0                15           2             5    6     1      -0.1089972705E-02       5    6    1        -0.6023276205E-01      0.1103722352E+00
          0                16           2             5    6     1      -0.6583674670E-03       5    6    1        -0.3638211687E-01      0.6645781388E-01
          0                17           2             5    6     1      -0.3976601709E-03       5    6    1        -0.2197521963E-01      0.4001936054E-01
          0                18           2             5    6     1      -0.2401860609E-03       5    6    1        -0.1327301501E-01      0.2410080116E-01
          0                19           2             5    6     1      -0.1450695950E-03       5    6    1        -0.8016744113E-02      0.1451540762E-01
          0                20           1             5    6     1      -0.8761902054E-04       5    6    1        -0.4841940495E-02      0.8743041451E-02

    ------------------------------------------------
       NWT REQUIRED           20 OUTER ITERATIONS 
       AND A TOTAL OF         39 INNER ITERATIONS.
    ------------------------------------------------

 NO OUTPUT CONTROL FOR STRESS PERIOD   33   TIME STEP    2
 
 SOLVING FOR HEAD 
                                                   Max.-Head-Change                         Max.-Flux-Residual
  Residual-Control   Outer-Iter.   Inner-Iter.     Column Row Layer    Maximum-Head-Change  Column Row Layer    Maximum-Flux-Residual          L2-NORM 
          0                 1           2             4    7     1       0.2024136184E+01       4    7    1         0.1058186531E+03      0.2468006232E+03
          0                 2           2             5    7     1       0.1165125869E+01       5    7    1         0.6161842605E+02      0.1414369612E+03
          0                 3           2             5    7     1       0.6987440250E+00       5    7    1         0.3696043779E+02      0.8340369334E+02
          0                 4           2             5    7     1       0.4280286910E+00       5    7    1         0.2264576441E+02      0.4879170270E+02
          0                 5           2             5    7     1       0.2585255677E+00       5    7    1         0.1368122582E+02      0.2944856147E+02
          0                 6           2             4    7     1       0.1551552251E+00       4    7    1         0.8209311833E+01      0.1567900929E+02
          0                 7           2             4    7     1       0.9328879561E-01       4    7    1         0.4959232816E+01      0.8502431485E+01
          0                 8           2             4    7     1       0.5595454234E-01       4    7    1         0.2979474325E+01      0.5007253550E+01
          0                 9           2             4    7     1       0.3353372722E-01       4    7    1         0.1786596465E+01      0.2983853743E+01
          0                10           2             4    7     1       0.2009191979E-01       4    7    1         0.1070614828E+01      0.1781083668E+01
                                                   Max.-Head-Change                         Max.-Flux-Residual
  Residual-Control   Outer-Iter.   Inner-Iter.     Column Row Layer    Maximum-Head-Change  Column Row Layer    Maximum-Flux-Residual          L2-NORM 
          0                11           2             4    7     1       0.1203773044E-01       4    7    1         0.6414486086E+00      0.1063601400E+01
          0                12           2             4    7     1       0.7212446847E-02       4    7    1         0.3843122801E+00      0.6353422814E+00
          0                13           2             4    7     1       0.4321606063E-02       4    7    1         0.2302634212E+00      0.3796327991E+00
          0                14           2             4    7     1       0.2589608946E-02       4    7    1         0.1379720748E+00      0.2269030162E+00
          0                15           2             4    7     1       0.1551846771E-02       4    7    1         0.8267687086E-01      0.1356529409E+00
          0                16           2             4    7     1       0.9300095479E-03       4    7    1         0.4954528572E-01      0.8111888303E-01
          0                17           2             4    7     1       0.5573755931E-03       4    7    1         0.2969233134E-01      0.4851881079E-01
          0                18           2             4    7     1       0.3340631077E-03       4    7    1         0.1779540778E-01      0.2902591304E-01
          0                19           2             4    7     1       0.2002291327E-03       4    7    1         0.1066574856E-01      0.1736768228E-01
          0                20           1             4    7     1       0.1200169156E-03       4    7    1         0.6392822617E-02      0.1039372713E-01
          0                21           1             4    7     1       0.7194034167E-04       4    7    1         0.3831864725E-02      0.6221111663E-02

    ------------------------------------------------
       NWT REQUIRED           21 OUTER ITERATIONS 
       AND A TOTAL OF         40 INNER ITERATIONS.
    ------------------------------------------------

 NO OUTPUT CONTROL FOR STRESS PERIOD   33   TIME STEP    3
 
 SOLVING FOR HEAD 
                                                   Max.-Head-Change                         Max.-Flux-Residual
  Residual-Control   Outer-Iter.   Inner-Iter.     Column Row Layer    Maximum-Head-Change  Column Row Layer    Maximum-Flux-Residual          L2-NORM 
          0                 1           2             4    7     1       0.1981238419E+01       4    7    1         0.1036526109E+03      0.2356156955E+03
          0                 2           2             4    8     1       0.8597513727E+00       4    8    1         0.4567909822E+02      0.9472356296E+02
          0                 3           2             4    8     1       0.5170049142E+00       4    8    1         0.2746012392E+02      0.5708100154E+02
          0                 4           2             4    8     1       0.3109799864E+00       4    8    1         0.1651390967E+02      0.3446313843E+02
          0                 5           2             4    8     1       0.1869808925E+00       4    8    1         0.9932330492E+01      0.2081043072E+02
          0                 6           2             4    7     1       0.1089581098E+00       4    8    1         0.5732205544E+01      0.1245391094E+02
          0                 7           2             4    7     1       0.6613091482E-01       4    7    1         0.3488875312E+01      0.6806462839E+01
          0                 8           2             4    7     1       0.3997143133E-01       4    7    1         0.2114772620E+01      0.4033467825E+01
          0                 9           2             4    7     1       0.2412363175E-01       4    7    1         0.1277631475E+01      0.2418046441E+01
          0                10           2             4    7     1       0.1455088756E-01       4    7    1         0.7709469345E+00      0.1451698781E+01
                                                   Max.-Head-Change                         Max.-Flux-Residual
  Residual-Control   Outer-Iter.   Inner-Iter.     Column Row Layer    Maximum-Head-Change  Column Row Layer    Maximum-Flux-Residual          L2-NORM 
          0                11           2             4    7     1       0.8774760359E-02       4    7    1         0.4649892102E+00      0.8716240185E+00
          0                12           2             4    7     1       0.5290925086E-02       4    7    1         0.2803991425E+00      0.5233833896E+00
          0                13           2             4    7     1       0.3190041370E-02       4    7    1         0.1690701177E+00      0.3143014576E+00
          0                14           2             4    7     1       0.1923247140E-02       4    7    1         0.1019359456E+00      0.1887593029E+00
          0                15           2             4    7     1       0.1159443126E-02       4    7    1         0.6145575335E-01      0.1133716452E+00
          0                16           2             4    7     1       0.6989393151E-03       4    7    1         0.3704874099E-01      0.6809773473E-01
          0                17           2             4    7     1       0.4213129800E-03       4    7    1         0.2233366585E-01      0.4090636649E-01
          0                18           2             4    7     1       0.2539482297E-03       4    7    1         0.1346238081E-01      0.2457407149E-01
          0                19           2             4    7     1       0.1530594730E-03       4    7    1         0.8114441898E-02      0.1476350148E-01
          0                20           1             4    7     1       0.9224645585E-04       4    7    1         0.4890689264E-02      0.8870046062E-02

    ------------------------------------------------
       NWT REQUIRED           20 OUTER ITERATIONS 
       AND A TOTAL OF         39 INNER ITERATIONS.
    ------------------------------------------------

 NO OUTPUT CONTROL FOR STRESS PERIOD   33   TIME STEP    4
 
 SOLVING FOR HEAD 
                                                   Max.-Head-Change                         Max.-Flux-Residual
  Residual-Control   Outer-Iter.   Inner-Iter.     Column Row Layer    Maximum-Head-Change  Column Row Layer    Maximum-Flux-Residual          L2-NORM 
          0                 1           2             4    7     1       0.1951487277E+01       4    7    1         0.1022040252E+03      0.2270040914E+03
          0                 2           2             4    6     1       0.1028079985E+01       4    6    1         0.5459976898E+02      0.1212725982E+03
          0                 3           2             4    6     1       0.6380207302E+00       4    6    1         0.3402150612E+02      0.7261016577E+02
          0                 4           2             5    8     1      -0.7700308623E+00       5    8    1        -0.4270548075E+02      0.8924689373E+02
          0                 5           2             5    6     1      -0.4161858935E+00       5    6    1        -0.2311230245E+02      0.4728625356E+02
          0                 6           2             5    7     1      -0.2329323043E+00       5    7    1        -0.1277237997E+02      0.2675659930E+02
          0                 7           2             5    7     1      -0.1411862767E+00       5    7    1        -0.7783592817E+01      0.1577025310E+02
          0                 8           2             4    7     1      -0.8732768042E-01       5    7    1        -0.4714780200E+01      0.9600643511E+01
          0                 9           2             4    7     1      -0.5421552300E-01       4    7    1        -0.2923754750E+01      0.5872501895E+01
          0                10           2             4    7     1      -0.3363061431E-01       4    7    1        -0.1814960167E+01      0.3594687355E+01
                                                   Max.-Head-Change                         Max.-Flux-Residual
  Residual-Control   Outer-Iter.   Inner-Iter.     Column Row Layer    Maximum-Head-Change  Column Row Layer    Maximum-Flux-Residual          L2-NORM 
          0                11           2             4    7     1      -0.2084545492E-01       4    7    1        -0.1125732792E+01      0.2200844408E+01
          0                12           2             4    7     1      -0.1291155391E-01       4    7    1        -0.6977047664E+00      0.1347665840E+01
          0                13           2             4    7     1      -0.7992075578E-02       4    7    1        -0.4321168537E+00      0.8253438316E+00
          0                14           2             4    7     1      -0.4943972341E-02       4    7    1        -0.2674527291E+00      0.5055253256E+00
          0                15           2             4    7     1      -0.3056662268E-02       4    7    1        -0.1654361497E+00      0.3096714588E+00
          0                16           2             4    7     1      -0.1888825067E-02       4    7    1        -0.1022752956E+00      0.1897162970E+00
          0                17           2             4    7     1      -0.1166608716E-02       4    7    1        -0.6319543844E-01      0.1162381147E+00
          0                18           2             4    7     1      -0.7202161201E-03       4    7    1        -0.3902937155E-01      0.7122436983E-01
          0                19           2             4    7     1      -0.4444452739E-03       4    7    1        -0.2409367397E-01      0.4364564547E-01
          0                20           2             4    7     1      -0.2741600312E-03       4    7    1        -0.1486735490E-01      0.2674742499E-01
                                                   Max.-Head-Change                         Max.-Flux-Residual
  Residual-Control   Outer-Iter.   Inner-Iter.     Column Row Layer    Maximum-Head-Change  Column Row Layer    Maximum-Flux-Residual          L2-NORM 
          0                21           2             4    7     1      -0.1690565202E-03       4    7    1        -0.9170563964E-02      0.1639263074E-01
          0                22           1             4    7     1      -0.1042106881E-03       4    7    1        -0.5654594620E-02      0.1004704039E-01
          0                23           1             4    7     1      -0.6421772867E-04       4    7    1        -0.3485463415E-02      0.6158116835E-02

    ------------------------------------------------
       NWT REQUIRED           23 OUTER ITERATIONS 
       AND A TOTAL OF         44 INNER ITERATIONS.
    ------------------------------------------------

 NO OUTPUT CONTROL FOR STRESS PERIOD   33   TIME STEP    5
 
 SOLVING FOR HEAD 
                                                   Max.-Head-Change                         Max.-Flux-Residual
  Residual-Control   Outer-Iter.   Inner-Iter.     Column Row Layer    Maximum-Head-Change  Column Row Layer    Maximum-Flux-Residual          L2-NORM 
          0                 1           2             4    7     1       0.1928839772E+01       4    7    1         0.1010977524E+03      0.2229357140E+03
          0                 2           2             5    8     1      -0.1088858587E+01       5    8    1        -0.6044112992E+02      0.1251526252E+03
          0                 3           2             5    6     1      -0.6449024442E+00       5    6    1        -0.3589219819E+02      0.6808028319E+02
          0                 4           2             4    8     1      -0.3107755887E+00       4    8    1        -0.1691531801E+02      0.3754102591E+02
          0                 5           2             4    8     1      -0.1909717970E+00       4    8    1        -0.1039364735E+02      0.2304762614E+02
          0                 6           2             4    8     1      -0.1173579193E+00       4    8    1        -0.6386782629E+01      0.1415213938E+02
          0                 7           2             4    8     1      -0.7210634698E-01       4    8    1        -0.3924808326E+01      0.7951054104E+01
          0                 8           2             4    8     1      -0.4428883406E-01       4    8    1        -0.2411359930E+01      0.4777079712E+01
          0                 9           2             4    8     1      -0.2719304387E-01       4    8    1        -0.1481018799E+01      0.2903639267E+01
          0                10           2             4    8     1      -0.1669031634E-01       4    8    1        -0.9092869705E+00      0.1767781476E+01
                                                   Max.-Head-Change                         Max.-Flux-Residual
  Residual-Control   Outer-Iter.   Inner-Iter.     Column Row Layer    Maximum-Head-Change  Column Row Layer    Maximum-Flux-Residual          L2-NORM 
          0                11           2             4    8     1      -0.1024049455E-01       4    8    1        -0.5580651989E+00      0.1076592094E+01
          0                12           2             4    8     1      -0.6281093319E-02       4    8    1        -0.3423886644E+00      0.6557719437E+00
          0                13           2             4    8     1      -0.3851378124E-02       4    8    1        -0.2099968199E+00      0.3995132101E+00
          0                14           2             4    8     1      -0.2360869900E-02       4    8    1        -0.1287578132E+00      0.2434358868E+00
          0                15           2             4    8     1      -0.1446807884E-02       4    8    1        -0.7892422626E-01      0.1483574390E+00
          0                16           2             4    8     1      -0.8864209825E-03       4    8    1        -0.4836495783E-01      0.9042747655E-01
          0                17           2             4    8     1      -0.5429583066E-03       4    8    1        -0.2963073398E-01      0.5512552782E-01
          0                18           2             4    8     1      -0.3325038695E-03       4    8    1        -0.1814897108E-01      0.3360945414E-01
          0                19           2             4    8     1      -0.2035807617E-03       4    8    1        -0.1111388856E-01      0.2049377159E-01
          0                20           2             4    8     1      -0.1246212810E-03       4    8    1        -0.6804410265E-02      0.1249769079E-01
          0                21           1             4    8     1      -0.7627257415E-04       4    8    1        -0.4165153038E-02      0.7622214355E-02

    ------------------------------------------------
       NWT REQUIRED           21 OUTER ITERATIONS 
       AND A TOTAL OF         41 INNER ITERATIONS.
    ------------------------------------------------

 NO OUTPUT CONTROL FOR STRESS PERIOD   33   TIME STEP    6
 
 SOLVING FOR HEAD 
                                                   Max.-Head-Change                         Max.-Flux-Residual
  Residual-Control   Outer-Iter.   Inner-Iter.     Column Row Layer    Maximum-Head-Change  Column Row Layer    Maximum-Flux-Residual          L2-NORM 
          0                 1           2             4    7     1       0.1912720921E+01       4    7    1         0.1002116976E+03      0.2244143432E+03
          0                 2           2             4    7     1       0.1164969876E+01       4    7    1         0.6120272477E+02      0.1279782285E+03
          0                 3           2             4    7     1       0.7027109963E+00       4    7    1         0.3699487112E+02      0.7154604721E+02
          0                 4           2             4    7     1       0.4328001358E+00       4    7    1         0.2278955768E+02      0.4395277760E+02
          0                 5           2             4    7     1       0.2625451826E+00       4    7    1         0.1384439297E+02      0.2595292436E+02
          0                 6           2             4    7     1       0.1582555348E+00       4    7    1         0.8396377597E+01      0.1442253698E+02
          0                 7           2             5    7     1       0.7789108876E-01       5    7    1         0.4182866456E+01      0.7256358537E+01
          0                 8           2             5    7     1       0.4602270507E-01       5    7    1         0.2483472330E+01      0.4139895700E+01
          0                 9           2             5    7     1       0.2712645924E-01       5    7    1         0.1466189711E+01      0.2439697855E+01
          0                10           2             5    7     1       0.1597683983E-01       5    7    1         0.8639565101E+00      0.1443764070E+01
                                                   Max.-Head-Change                         Max.-Flux-Residual
  Residual-Control   Outer-Iter.   Inner-Iter.     Column Row Layer    Maximum-Head-Change  Column Row Layer    Maximum-Flux-Residual          L2-NORM 
          0                11           2             5    7     1       0.9408812345E-02       5    7    1         0.5088101282E+00      0.8547669738E+00
          0                12           2             5    7     1       0.5541425413E-02       5    7    1         0.2996378837E+00      0.5060790106E+00
          0                13           2             5    7     1       0.3264253789E-02       5    7    1         0.1764783465E+00      0.2996415283E+00
          0                14           2             5    7     1       0.1923231861E-02       5    7    1         0.1039598155E+00      0.1774203653E+00
          0                15           2             5    7     1       0.1133354261E-02       5    7    1         0.6125278218E-01      0.1050568902E+00
          0                16           2             5    7     1       0.6680115427E-03       5    7    1         0.3609710884E-01      0.6221070355E-01
          0                17           2             5    7     1       0.3938069795E-03       5    7    1         0.2127663278E-01      0.3684039830E-01
          0                18           2             5    7     1       0.2321991554E-03       5    7    1         0.1254336491E-01      0.2181730283E-01
          0                19           2             5    7     1       0.1369343068E-03       5    7    1         0.7396095321E-02      0.1292094357E-01
          0                20           1             5    7     1       0.8076720196E-04       5    7    1         0.4361791029E-02      0.7652489974E-02

    ------------------------------------------------
       NWT REQUIRED           20 OUTER ITERATIONS 
       AND A TOTAL OF         39 INNER ITERATIONS.
    ------------------------------------------------

 NO OUTPUT CONTROL FOR STRESS PERIOD   33   TIME STEP    7
 
 SOLVING FOR HEAD 
                                                   Max.-Head-Change                         Max.-Flux-Residual
  Residual-Control   Outer-Iter.   Inner-Iter.     Column Row Layer    Maximum-Head-Change  Column Row Layer    Maximum-Flux-Residual          L2-NORM 
          0                 1           2             4    7     1       0.1858001421E+01       4    7    1         0.9743416537E+02      0.2064944151E+03
          0                 2           2             4    7     1       0.7678084512E+00       4    7    1         0.4034061487E+02      0.8162231803E+02
          0                 3           2             4    7     1       0.4673690133E+00       4    7    1         0.2456922658E+02      0.4896087153E+02
          0                 4           2             4    7     1       0.2836150574E+00       4    7    1         0.1495417132E+02      0.2683352185E+02
          0                 5           2             4    7     1       0.1707602947E+00       4    7    1         0.9070279647E+01      0.1393132621E+02
          0                 6           2             4    7     1       0.1024013486E+00       4    7    1         0.5454450838E+01      0.8132417856E+01
          0                 7           2             4    7     1       0.6131033605E-01       4    7    1         0.3269415927E+01      0.4835495476E+01
          0                 8           2             4    7     1       0.3668220342E-01       4    7    1         0.1957119401E+01      0.2881937418E+01
          0                 9           2             4    7     1       0.2193890196E-01       4    7    1         0.1170851936E+01      0.1718109595E+01
          0                10           2             4    7     1       0.1311801600E-01       4    7    1         0.7002302561E+00      0.1024336280E+01
                                                   Max.-Head-Change                         Max.-Flux-Residual
  Residual-Control   Outer-Iter.   Inner-Iter.     Column Row Layer    Maximum-Head-Change  Column Row Layer    Maximum-Flux-Residual          L2-NORM 
          0                11           2             4    7     1       0.7842216103E-02       4    7    1         0.4186778918E+00      0.6107370304E+00
          0                12           2             4    7     1       0.4687467960E-02       4    7    1         0.2502876051E+00      0.3641555928E+00
          0                13           2             4    7     1       0.2801389663E-02       4    7    1         0.1495990784E+00      0.2171403364E+00
          0                14           2             4    7     1       0.1673976695E-02       4    7    1         0.8940361415E-01      0.1294832833E+00
          0                15           2             4    7     1       0.1000161416E-02       4    7    1         0.5342229922E-01      0.7721561984E-01
          0                16           2             4    7     1       0.5975018557E-03       4    7    1         0.3191798354E-01      0.4604828252E-01
          0                17           2             4    7     1       0.3569112677E-03       4    7    1         0.1906765573E-01      0.2746231526E-01
          0                18           2             4    7     1       0.2131749775E-03       4    7    1         0.1138967860E-01      0.1637853363E-01
          0                19           1             4    7     1       0.1273122166E-03       4    7    1         0.6802695689E-02      0.9768454698E-02
          0                20           1             4    7     1       0.7602642379E-04       4    7    1         0.4062645428E-02      0.5826243222E-02

    ------------------------------------------------
       NWT REQUIRED           20 OUTER ITERATIONS 
       AND A TOTAL OF         38 INNER ITERATIONS.
    ------------------------------------------------

 NO OUTPUT CONTROL FOR STRESS PERIOD   33   TIME STEP    8
 
 SOLVING FOR HEAD 
                                                   Max.-Head-Change                         Max.-Flux-Residual
  Residual-Control   Outer-Iter.   Inner-Iter.     Column Row Layer    Maximum-Head-Change  Column Row Layer    Maximum-Flux-Residual          L2-NORM 
          0                 1           2             4    7     1       0.1780066966E+01       4    7    1         0.9480137982E+02      0.1593941282E+03
          0                 2           2             4    6     1       0.8889366320E+00       4    6    1         0.4772776406E+02      0.6666083933E+02
          0                 3           2             4    6     1       0.5446647295E+00       4    6    1         0.2952585567E+02      0.3201765092E+02
          0                 4           2             4    8     1      -0.9256673322E+00       5    8    1        -0.5091337974E+02      0.1164375847E+03
          0                 5           2             4    6     1      -0.3779453829E+00       4    6    1        -0.2084309364E+02      0.3218503067E+02
          0                 6           2             4    6     1      -0.2266677543E+00       4    6    1        -0.1262119715E+02      0.1398336406E+02
          0                 7           2             4    6     1      -0.1352672311E+00       4    6    1        -0.7560725966E+01      0.7711882696E+01
          0                 8           2             4    6     1      -0.8026039464E-01       4    6    1        -0.4499784346E+01      0.4518450850E+01
          0                 9           2             4    6     1      -0.4767837536E-01       4    6    1        -0.2674844751E+01      0.2677717734E+01
          0                10           2             4    6     1      -0.2831295193E-01       4    6    1        -0.1588823170E+01      0.1589485505E+01
                                                   Max.-Head-Change                         Max.-Flux-Residual
  Residual-Control   Outer-Iter.   Inner-Iter.     Column Row Layer    Maximum-Head-Change  Column Row Layer    Maximum-Flux-Residual          L2-NORM 
          0                11           2             4    6     1      -0.1681062260E-01       4    6    1        -0.9434466758E+00      0.9436810642E+00
          0                12           2             4    6     1      -0.9980550143E-02       4    6    1        -0.5601480978E+00      0.5602580947E+00
          0                13           2             4    6     1      -0.5925325817E-02       4    6    1        -0.3325554327E+00      0.3326145971E+00
          0                14           2             4    6     1      -0.3517735211E-02       4    6    1        -0.1974303081E+00      0.1974640366E+00
          0                15           2             4    6     1      -0.2088380657E-02       4    6    1        -0.1172080385E+00      0.1172277327E+00
          0                16           2             4    6     1      -0.1239803240E-02       4    6    1        -0.6958199152E-01      0.6959360434E-01
          0                17           2             4    6     1      -0.7360254826E-03       4    6    1        -0.4130789083E-01      0.4131476582E-01
          0                18           2             4    6     1      -0.4369483127E-03       4    6    1        -0.2452258336E-01      0.2452666011E-01
          0                19           2             4    6     1      -0.2593967157E-03       4    6    1        -0.1455782771E-01      0.1456024677E-01
          0                20           2             4    6     1      -0.1539912672E-03       4    6    1        -0.8642196441E-02      0.8643632238E-02
          0                21           1             4    6     1      -0.9141657188E-04       4    6    1        -0.5130372638E-02      0.5131224950E-02

    ------------------------------------------------
       NWT REQUIRED           21 OUTER ITERATIONS 
       AND A TOTAL OF         41 INNER ITERATIONS.
    ------------------------------------------------

 NO OUTPUT CONTROL FOR STRESS PERIOD   33   TIME STEP    9
 
 SOLVING FOR HEAD 
                                                   Max.-Head-Change                         Max.-Flux-Residual
  Residual-Control   Outer-Iter.   Inner-Iter.     Column Row Layer    Maximum-Head-Change  Column Row Layer    Maximum-Flux-Residual          L2-NORM 
          0                 1           2             4    6     1       0.9924793410E+00       4    6    1         0.5430506562E+02      0.6660537357E+02
          0                 2           2             4    7     1      -0.1911446075E+01       4    7    1        -0.1000429778E+03      0.2390827505E+03
          0                 3           2             4    6     1      -0.3864517468E+00       4    6    1        -0.2195283685E+02      0.3125517346E+02
          0                 4           2             4    6     1      -0.9192292999E-01       4    6    1        -0.5132368511E+01      0.5363438998E+01
          0                 5           2             4    6     1      -0.2186111732E-01       4    6    1        -0.1226112256E+01      0.1227671422E+01
          0                 6           2             4    6     1      -0.5198746901E-02       4    6    1        -0.2913538448E+00      0.2913606127E+00
          0                 7           2             4    6     1      -0.1236258791E-02       4    6    1        -0.6928174927E-01      0.6928373228E-01
          0                 8           2             4    6     1      -0.2939723615E-03       4    6    1        -0.1647444812E-01      0.1647492809E-01
          0                 9           1             4    6     1      -0.6990213753E-04       4    6    1        -0.3917335813E-02      0.3917450185E-02

    ------------------------------------------------
       NWT REQUIRED            9 OUTER ITERATIONS 
       AND A TOTAL OF         17 INNER ITERATIONS.
    ------------------------------------------------

 NO OUTPUT CONTROL FOR STRESS PERIOD   33   TIME STEP   10
 
 SOLVING FOR HEAD 
                                                   Max.-Head-Change                         Max.-Flux-Residual
  Residual-Control   Outer-Iter.   Inner-Iter.     Column Row Layer    Maximum-Head-Change  Column Row Layer    Maximum-Flux-Residual          L2-NORM 
          0                 1           2             5    6     1      -0.2436887976E+00       5    6    1        -0.1352116042E+02      0.3272304930E+02
          0                 2           2             5    6     1       0.2310703017E-01       5    6    1         0.1323511031E+01      0.3139722694E+01
          0                 3           2             5    6     1      -0.6559494022E-02       5    6    1        -0.3754363397E+00      0.8275611712E+00
          0                 4           2             4    7     1       0.5692117297E-02       5    6    1         0.3262499266E+00      0.7983068671E+00
          0                 5           1             4    7     1      -0.7018684974E-04       5    6    1        -0.4132411012E-02      0.1133405115E-01

    ------------------------------------------------
       NWT REQUIRED            5 OUTER ITERATIONS 
       AND A TOTAL OF          9 INNER ITERATIONS.
    ------------------------------------------------

 NO OUTPUT CONTROL FOR STRESS PERIOD   33   TIME STEP   11
 
 SOLVING FOR HEAD 
                                                   Max.-Head-Change                         Max.-Flux-Residual
  Residual-Control   Outer-Iter.   Inner-Iter.     Column Row Layer    Maximum-Head-Change  Column Row Layer    Maximum-Flux-Residual          L2-NORM 
          0                 1           2             5    6     1      -0.2285232132E+00       5    6    1        -0.1266973774E+02      0.3114179251E+02
          0                 2           2             4    7     1      -0.2472836369E+00       4    7    1        -0.1293855575E+02      0.3063556811E+02
          0                 3           2             4    7     1       0.2405279940E-01       4    7    1         0.1293893435E+01      0.3058409199E+01
          0                 4           2             4    7     1      -0.1637917891E-02       4    7    1        -0.9058086233E-01      0.2139493556E+00
          0                 5           1             4    7     1       0.6517423042E-04       4    7    1         0.3705059755E-02      0.8751886847E-02

    ------------------------------------------------
       NWT REQUIRED            5 OUTER ITERATIONS 
       AND A TOTAL OF          9 INNER ITERATIONS.
    ------------------------------------------------

 NO OUTPUT CONTROL FOR STRESS PERIOD   33   TIME STEP   12
 
 SOLVING FOR HEAD 
                                                   Max.-Head-Change                         Max.-Flux-Residual
  Residual-Control   Outer-Iter.   Inner-Iter.     Column Row Layer    Maximum-Head-Change  Column Row Layer    Maximum-Flux-Residual          L2-NORM 
          0                 1           2             5    8     1       0.3329578177E+00       5    8    1         0.1832904412E+02      0.3387212862E+02
          0                 2           2             5    8     1       0.6092870989E-01       5    8    1         0.3409210796E+01      0.4772105165E+01
          0                 3           2             5    8     1       0.3919628726E-01       5    8    1         0.2121298375E+01      0.3593097609E+01
          0                 4           2             4    7     1      -0.9222396083E+00       4    7    1        -0.5091976627E+02      0.1244353708E+03
          0                 5           2             5    8     1      -0.2738318119E+00       5    8    1        -0.1556759560E+02      0.1624268430E+02
          0                 6           2             5    8     1      -0.8218847820E-01       5    8    1        -0.4653500198E+01      0.4654077200E+01
          0                 7           2             5    8     1      -0.2466723340E-01       5    8    1        -0.1396783498E+01      0.1396820521E+01
          0                 8           2             5    8     1      -0.7403155905E-02       5    8    1        -0.4192010311E+00      0.4192114240E+00
          0                 9           1             5    8     1      -0.2221789011E-02       5    8    1        -0.1258067240E+00      0.1258098342E+00
          0                10           1             5    8     1      -0.6667744469E-03       5    8    1        -0.3775511472E-01      0.3775604807E-01
                                                   Max.-Head-Change                         Max.-Flux-Residual
  Residual-Control   Outer-Iter.   Inner-Iter.     Column Row Layer    Maximum-Head-Change  Column Row Layer    Maximum-Flux-Residual          L2-NORM 
          0                11           1             5    8     1      -0.2000992769E-03       5    8    1        -0.1133021801E-01      0.1133049816E-01
          0                12           1             5    8     1      -0.6004856011E-04       5    8    1        -0.3400096736E-02      0.3400180846E-02

    ------------------------------------------------
       NWT REQUIRED           12 OUTER ITERATIONS 
       AND A TOTAL OF         20 INNER ITERATIONS.
    ------------------------------------------------

 NO OUTPUT CONTROL FOR STRESS PERIOD   33   TIME STEP   13
 
 SOLVING FOR HEAD 
                                                   Max.-Head-Change                         Max.-Flux-Residual
  Residual-Control   Outer-Iter.   Inner-Iter.     Column Row Layer    Maximum-Head-Change  Column Row Layer    Maximum-Flux-Residual          L2-NORM 
          0                 1           2             4    5     1       0.1731947920E+00       4    5    1         0.9461082111E+01      0.2360212351E+02
          0                 2           2             4    7     1      -0.1909860501E+01       5    7    1        -0.1008446411E+03      0.2445260212E+03
          0                 3           2             5    7     1       0.1851299438E+00       5    7    1         0.1007716380E+02      0.2200712707E+02
          0                 4           2             5    7     1      -0.1260802824E-01       5    7    1        -0.7055729094E+00      0.1536087627E+01
          0                 5           2             5    7     1       0.5016786639E-03       5    7    1         0.2886084163E-01      0.6277580887E-01
          0                 6           1             5    7     1      -0.6185925553E-05       5    7    1        -0.3657969019E-03      0.7964975852E-03

    ------------------------------------------------
       NWT REQUIRED            6 OUTER ITERATIONS 
       AND A TOTAL OF         11 INNER ITERATIONS.
    ------------------------------------------------

 NO OUTPUT CONTROL FOR STRESS PERIOD   33   TIME STEP   14
 
 SOLVING FOR HEAD 
                                                   Max.-Head-Change                         Max.-Flux-Residual
  Residual-Control   Outer-Iter.   Inner-Iter.     Column Row Layer    Maximum-Head-Change  Column Row Layer    Maximum-Flux-Residual          L2-NORM 
          0                 1           2             4    5     1       0.1387286493E+00       4    5    1         0.7576484508E+01      0.1748320828E+02
          0                 2           2             4    5     1      -0.1350124179E-01       4    5    1        -0.7575982150E+00      0.1720355895E+01
          0                 3           2             4    6     1      -0.5793947569E-02       4    6    1        -0.3258015754E+00      0.7479419923E+00
          0                 4           2             5    8     1       0.5835142024E-02       5    8    1         0.3304253410E+00      0.7988787540E+00
          0                 5           1             5    8     1      -0.2322430627E-03       5    8    1        -0.1378163054E-01      0.1728774374E-01
          0                 6           1             5    8     1       0.2865779157E-05       5    8    1         0.1780288603E-03      0.2977224120E-03

    ------------------------------------------------
       NWT REQUIRED            6 OUTER ITERATIONS 
       AND A TOTAL OF         10 INNER ITERATIONS.
    ------------------------------------------------

 NO OUTPUT CONTROL FOR STRESS PERIOD   33   TIME STEP   15
 
 SOLVING FOR HEAD 
                                                   Max.-Head-Change                         Max.-Flux-Residual
  Residual-Control   Outer-Iter.   Inner-Iter.     Column Row Layer    Maximum-Head-Change  Column Row Layer    Maximum-Flux-Residual          L2-NORM 
          0                 1           2             4    5     1       0.1320017372E+00       4    5    1         0.7208036684E+01      0.1665496287E+02
          0                 2           2             4    7     1      -0.2483963858E+00       5    8    1        -0.1324398242E+02      0.3160750857E+02
          0                 3           2             4    7     1       0.2416114866E-01       4    8    1         0.1301509219E+01      0.3015126559E+01
          0                 4           2             4    7     1      -0.1645295108E-02       4    8    1        -0.9146426320E-01      0.2046531251E+00
          0                 5           1             4    7     1       0.6546778024E-04       4    8    1         0.3755030654E-02      0.8261468719E-02

    ------------------------------------------------
       NWT REQUIRED            5 OUTER ITERATIONS 
       AND A TOTAL OF          9 INNER ITERATIONS.
    ------------------------------------------------

 NO OUTPUT CONTROL FOR STRESS PERIOD   33   TIME STEP   16
 
 SOLVING FOR HEAD 
                                                   Max.-Head-Change                         Max.-Flux-Residual
  Residual-Control   Outer-Iter.   Inner-Iter.     Column Row Layer    Maximum-Head-Change  Column Row Layer    Maximum-Flux-Residual          L2-NORM 
          0                 1           2             5    8     1       0.1619678944E+01       5    8    1         0.8895488765E+02      0.9141428063E+02
          0                 2           2             5    8     1       0.6604182172E+00       5    8    1         0.3639290177E+02      0.3736583164E+02
          0                 3           2             5    8     1       0.2085023777E+00       5    8    1         0.1140390828E+02      0.1316488399E+02
          0                 4           2             4    7     1      -0.9212645570E+00       5    6    1        -0.5091848501E+02      0.1217240626E+03
          0                 5           2             4    8     1      -0.5223254869E+00       4    8    1        -0.2901375500E+02      0.3280284874E+02
          0                 6           2             5    8     1      -0.8153699274E-01       5    8    1        -0.4579137982E+01      0.5531722679E+01
          0                 7           2             5    8     1      -0.2441900668E-01       5    8    1        -0.1388606450E+01      0.1405544915E+01
          0                 8           2             5    8     1      -0.7312867590E-02       5    8    1        -0.4147278038E+00      0.4148404411E+00
          0                 9           1             5    8     1      -0.2189957739E-02       5    8    1        -0.1242347747E+00      0.1242361957E+00
          0                10           1             5    8     1      -0.6558034052E-03       5    8    1        -0.3720240164E-01      0.3720290388E-01
                                                   Max.-Head-Change                         Max.-Flux-Residual
  Residual-Control   Outer-Iter.   Inner-Iter.     Column Row Layer    Maximum-Head-Change  Column Row Layer    Maximum-Flux-Residual          L2-NORM 
          0                11           1             5    8     1      -0.1963821112E-03       5    8    1        -0.1114026054E-01      0.1114040981E-01
          0                12           1             5    8     1      -0.5880586387E-04       5    8    1        -0.3335876500E-02      0.3335923166E-02

    ------------------------------------------------
       NWT REQUIRED           12 OUTER ITERATIONS 
       AND A TOTAL OF         20 INNER ITERATIONS.
    ------------------------------------------------

 NO OUTPUT CONTROL FOR STRESS PERIOD   33   TIME STEP   17
 
 SOLVING FOR HEAD 
                                                   Max.-Head-Change                         Max.-Flux-Residual
  Residual-Control   Outer-Iter.   Inner-Iter.     Column Row Layer    Maximum-Head-Change  Column Row Layer    Maximum-Flux-Residual          L2-NORM 
          0                 1           2             4    8     1       0.1571962768E+01       4    8    1         0.8488211583E+02      0.1204725154E+03
          0                 2           2             4    6     1      -0.1870213726E+01       5    8    1        -0.9998846814E+02      0.2093650990E+03
          0                 3           2             4    7     1      -0.8472879106E+00       4    7    1        -0.4681502327E+02      0.7070930562E+02
          0                 4           2             5    7     1      -0.3449462854E+00       5    7    1        -0.1938304414E+02      0.2700773790E+02
          0                 5           2             5    7     1      -0.2016267044E+00       5    7    1        -0.1148047681E+02      0.1278811131E+02
          0                 6           2             5    7     1      -0.1180501426E+00       5    7    1        -0.6699830264E+01      0.7459042645E+01
          0                 7           2             5    7     1      -0.6912783748E-01       5    7    1        -0.3923541674E+01      0.4383741957E+01
          0                 8           2             5    7     1      -0.4048003369E-01       5    7    1        -0.2297497892E+01      0.2576416927E+01
          0                 9           2             5    7     1      -0.2370441582E-01       5    7    1        -0.1345349446E+01      0.1514379988E+01
          0                10           2             5    7     1      -0.1388089981E-01       5    7    1        -0.7878000725E+00      0.8902251490E+00
                                                   Max.-Head-Change                         Max.-Flux-Residual
  Residual-Control   Outer-Iter.   Inner-Iter.     Column Row Layer    Maximum-Head-Change  Column Row Layer    Maximum-Flux-Residual          L2-NORM 
          0                11           2             5    7     1      -0.8160852510E-02       5    7    1        -0.4624393033E+00      0.5243637746E+00
          0                12           2             5    7     1      -0.4787330054E-02       5    7    1        -0.2712641592E+00      0.3087158456E+00
          0                13           2             5    7     1      -0.2808343796E-02       5    7    1        -0.1591269202E+00      0.1817771929E+00
          0                14           2             5    7     1      -0.1647427184E-02       5    7    1        -0.9334556237E-01      0.1070428957E+00
          0                15           2             5    7     1      -0.9664096153E-03       5    7    1        -0.5475739428E-01      0.6303985536E-01
          0                16           2             5    7     1      -0.5669115855E-03       5    7    1        -0.3212113931E-01      0.3712889683E-01
          0                17           2             5    7     1      -0.3325588577E-03       5    7    1        -0.1884248557E-01      0.2187000836E-01
          0                18           2             5    7     1      -0.1950836311E-03       5    7    1        -0.1105311132E-01      0.1288328172E-01
          0                19           2             5    7     1      -0.1144385353E-03       5    7    1        -0.6483806169E-02      0.7590061381E-02
          0                20           1             5    7     1      -0.6713097013E-04       5    7    1        -0.3803423235E-02      0.4472042004E-02

    ------------------------------------------------
       NWT REQUIRED           20 OUTER ITERATIONS 
       AND A TOTAL OF         39 INNER ITERATIONS.
    ------------------------------------------------

 NO OUTPUT CONTROL FOR STRESS PERIOD   33   TIME STEP   18
 
 SOLVING FOR HEAD 
                                                   Max.-Head-Change                         Max.-Flux-Residual
  Residual-Control   Outer-Iter.   Inner-Iter.     Column Row Layer    Maximum-Head-Change  Column Row Layer    Maximum-Flux-Residual          L2-NORM 
          0                 1           2             4    7     1       0.8056399650E+00       4    7    1         0.4293645145E+02      0.6702135107E+02
          0                 2           2             4    6     1       0.2513162449E+00       4    6    1         0.1339784141E+02      0.2275723809E+02
          0                 3           2             4    6     1       0.1433898637E+00       4    6    1         0.7729707024E+01      0.9158885282E+01
          0                 4           2             4    6     1       0.9008623542E-01       4    6    1         0.4873747216E+01      0.5299909701E+01
          0                 5           2             4    6     1       0.5278661112E-01       4    6    1         0.2864950895E+01      0.2933188011E+01
          0                 6           2             4    6     1       0.3086540257E-01       4    6    1         0.1677831290E+01      0.1689853038E+01
          0                 7           2             4    6     1       0.1802881736E-01       4    6    1         0.9808024894E+00      0.9832730647E+00
          0                 8           2             4    6     1       0.1052538735E-01       4    6    1         0.5728225914E+00      0.5734610441E+00
          0                 9           2             4    6     1       0.6143240629E-02       4    6    1         0.3343974373E+00      0.3346118647E+00
          0                10           2             4    6     1       0.3585102780E-02       4    6    1         0.1951679504E+00      0.1952580668E+00
                                                   Max.-Head-Change                         Max.-Flux-Residual
  Residual-Control   Outer-Iter.   Inner-Iter.     Column Row Layer    Maximum-Head-Change  Column Row Layer    Maximum-Flux-Residual          L2-NORM 
          0                11           2             4    6     1       0.2092079442E-02       4    6    1         0.1138952773E+00      0.1139392831E+00
          0                12           2             4    6     1       0.1220790216E-02       4    6    1         0.6646283740E-01      0.6648625557E-01
          0                13           2             4    6     1       0.7123560104E-03       4    6    1         0.3878288079E-01      0.3879592315E-01
          0                14           2             4    6     1       0.4156710245E-03       4    6    1         0.2263055931E-01      0.2263799390E-01
          0                15           2             4    6     1       0.2425496874E-03       4    6    1         0.1320527763E-01      0.1320956549E-01
          0                16           2             4    6     1       0.1415307615E-03       4    6    1         0.7705455246E-02      0.7707942755E-02
          0                17           1             4    6     1       0.8258488084E-04       4    6    1         0.4496228021E-02      0.4497675315E-02

    ------------------------------------------------
       NWT REQUIRED           17 OUTER ITERATIONS 
       AND A TOTAL OF         33 INNER ITERATIONS.
    ------------------------------------------------

 NO OUTPUT CONTROL FOR STRESS PERIOD   33   TIME STEP   19
 
 SOLVING FOR HEAD 
                                                   Max.-Head-Change                         Max.-Flux-Residual
  Residual-Control   Outer-Iter.   Inner-Iter.     Column Row Layer    Maximum-Head-Change  Column Row Layer    Maximum-Flux-Residual          L2-NORM 
          0                 1           2             4    6     1       0.8881153156E-01       4    6    1         0.4737729337E+01      0.1033545112E+02
          0                 2           2             4    7     1      -0.2433109240E+00       5    8    1        -0.1324729356E+02      0.3125783583E+02
          0                 3           2             4    6     1      -0.6697364051E-01       4    6    1        -0.3726702899E+01      0.4275325994E+01
          0                 4           2             4    6     1      -0.2038501807E-01       4    6    1        -0.1143140508E+01      0.1151282969E+01
          0                 5           2             4    6     1      -0.6204487851E-02       4    6    1        -0.3473434721E+00      0.3473921903E+00
          0                 6           2             4    6     1      -0.1888382745E-02       4    6    1        -0.1057327902E+00      0.1057333597E+00
          0                 7           2             4    6     1      -0.5747307263E-03       4    6    1        -0.3217937655E-01      0.3217958528E-01
          0                 8           2             4    6     1      -0.1749159464E-03       4    6    1        -0.9793511003E-02      0.9793574021E-02
          0                 9           1             4    6     1      -0.5323350655E-04       4    6    1        -0.2980506368E-02      0.2980525599E-02

    ------------------------------------------------
       NWT REQUIRED            9 OUTER ITERATIONS 
       AND A TOTAL OF         17 INNER ITERATIONS.
    ------------------------------------------------

 NO OUTPUT CONTROL FOR STRESS PERIOD   33   TIME STEP   20
 
 SOLVING FOR HEAD 
                                                   Max.-Head-Change                         Max.-Flux-Residual
  Residual-Control   Outer-Iter.   Inner-Iter.     Column Row Layer    Maximum-Head-Change  Column Row Layer    Maximum-Flux-Residual          L2-NORM 
          0                 1           2             5    8     1       0.1407708174E+01       5    8    1         0.7703805214E+02      0.8225184893E+02
          0                 2           2             5    8     1       0.7826601926E+00       5    8    1         0.4290964081E+02      0.4553672769E+02
          0                 3           2             5    8     1       0.2794408342E+00       5    8    1         0.1520823135E+02      0.1873344555E+02
          0                 4           2             4    7     1      -0.9200242246E+00       4    7    1        -0.5091496722E+02      0.1193293206E+03
          0                 5           2             4    8     1      -0.4993804724E+00       4    8    1        -0.2771969694E+02      0.3882451264E+02
          0                 6           2             4    8     1      -0.2997274683E+00       4    8    1        -0.1664479319E+02      0.1825596720E+02
          0                 7           2             4    8     1      -0.1685205443E+00       4    8    1        -0.9352956021E+01      0.1035559207E+02
          0                 8           2             5    8     1      -0.4736920505E-01       5    8    1        -0.2696882269E+01      0.2774536678E+01
          0                 9           2             5    8     1      -0.2775752813E-01       5    8    1        -0.1574147141E+01      0.1574394684E+01
          0                10           2             5    8     1      -0.1626537646E-01       5    8    1        -0.9226340527E+00      0.9226355026E+00
                                                   Max.-Head-Change                         Max.-Flux-Residual
  Residual-Control   Outer-Iter.   Inner-Iter.     Column Row Layer    Maximum-Head-Change  Column Row Layer    Maximum-Flux-Residual          L2-NORM 
          0                11           2             5    8     1      -0.9531157375E-02       5    8    1        -0.5406331970E+00      0.5406342897E+00
          0                12           1             5    8     1      -0.5585022250E-02       5    8    1        -0.3167939394E+00      0.3167945764E+00
          0                13           1             5    8     1      -0.3272665867E-02       5    8    1        -0.1856303214E+00      0.1856306948E+00
          0                14           1             5    8     1      -0.1917678367E-02       5    8    1        -0.1087723674E+00      0.1087725863E+00
          0                15           1             5    8     1      -0.1123691581E-02       5    8    1        -0.6373612537E-01      0.6373625360E-01
          0                16           1             5    8     1      -0.6584392169E-03       5    8    1        -0.3734651077E-01      0.3734658591E-01
          0                17           1             5    8     1      -0.3858170597E-03       5    8    1        -0.2188324060E-01      0.2188328464E-01
          0                18           1             5    8     1      -0.2260707222E-03       5    8    1        -0.1282243266E-01      0.1282245848E-01
          0                19           1             5    8     1      -0.1324659817E-03       5    8    1        -0.7513224805E-02      0.7513239954E-02
          0                20           1             5    8     1      -0.7761783844E-04       5    8    1        -0.4402298553E-02      0.4402307506E-02

    ------------------------------------------------
       NWT REQUIRED           20 OUTER ITERATIONS 
       AND A TOTAL OF         31 INNER ITERATIONS.
    ------------------------------------------------

 NO OUTPUT CONTROL FOR STRESS PERIOD   33   TIME STEP   21
 
 SOLVING FOR HEAD 
                                                   Max.-Head-Change                         Max.-Flux-Residual
  Residual-Control   Outer-Iter.   Inner-Iter.     Column Row Layer    Maximum-Head-Change  Column Row Layer    Maximum-Flux-Residual          L2-NORM 
          0                 1           2             4    8     1       0.1844185100E+01       4    8    1         0.9935829844E+02      0.1475620408E+03
          0                 2           2             4    6     1      -0.1868268992E+01       4    6    1        -0.9979455220E+02      0.1856495176E+03
          0                 3           2             5    6     1      -0.7833302371E+00       5    6    1        -0.4404927179E+02      0.7379265713E+02
          0                 4           2             4    7     1      -0.4710699867E+00       4    7    1        -0.2587148160E+02      0.4319136287E+02
          0                 5           2             5    7     1      -0.2144821415E+00       5    7    1        -0.1204950420E+02      0.1771844785E+02
          0                 6           2             5    7     1      -0.1256210066E+00       5    7    1        -0.7138778226E+01      0.8852035689E+01
          0                 7           2             5    7     1      -0.7357644859E-01       5    7    1        -0.4174992394E+01      0.5198338141E+01
          0                 8           2             5    7     1      -0.4309420721E-01       5    7    1        -0.2445451012E+01      0.3067040174E+01
          0                 9           2             5    7     1      -0.2526207817E-01       5    7    1        -0.1432599869E+01      0.1810031862E+01
          0                10           2             5    7     1      -0.1480670571E-01       5    7    1        -0.8396616289E+00      0.1068711940E+01
                                                   Max.-Head-Change                         Max.-Flux-Residual
  Residual-Control   Outer-Iter.   Inner-Iter.     Column Row Layer    Maximum-Head-Change  Column Row Layer    Maximum-Flux-Residual          L2-NORM 
          0                11           2             5    7     1      -0.8678577084E-02       5    7    1        -0.4921378247E+00      0.6311213690E+00
          0                12           2             5    7     1      -0.5086735634E-02       5    7    1        -0.2884495410E+00      0.3727698845E+00
          0                13           2             5    7     1      -0.2981469069E-02       5    7    1        -0.1690649757E+00      0.2202140143E+00
          0                14           2             5    7     1      -0.1747519124E-02       5    7    1        -0.9909186394E-01      0.1301144437E+00
          0                15           2             5    7     1      -0.1024269104E-02       5    7    1        -0.5807950072E-01      0.7689228839E-01
          0                16           2             5    7     1      -0.6003530942E-03       5    7    1        -0.3404146811E-01      0.4544823907E-01
          0                17           2             5    7     1      -0.3518844105E-03       5    7    1        -0.1995235894E-01      0.2686758125E-01
          0                18           2             5    7     1      -0.2062499958E-03       5    7    1        -0.1169447744E-01      0.1588610785E-01
          0                19           2             5    7     1      -0.1208894997E-03       5    7    1        -0.6854377975E-02      0.9394723572E-02
          0                20           1             5    7     1      -0.7085719600E-04       5    7    1        -0.4017500998E-02      0.5556843310E-02

    ------------------------------------------------
       NWT REQUIRED           20 OUTER ITERATIONS 
       AND A TOTAL OF         39 INNER ITERATIONS.
    ------------------------------------------------

 NO OUTPUT CONTROL FOR STRESS PERIOD   33   TIME STEP   22
 
 SOLVING FOR HEAD 
                                                   Max.-Head-Change                         Max.-Flux-Residual
  Residual-Control   Outer-Iter.   Inner-Iter.     Column Row Layer    Maximum-Head-Change  Column Row Layer    Maximum-Flux-Residual          L2-NORM 
          0                 1           2             5    6     1       0.1647484117E+01       5    6    1         0.8944904194E+02      0.1382709962E+03
          0                 2           2             5    6     1       0.4726269491E+00       5    6    1         0.2551281588E+02      0.4368009769E+02
          0                 3           2             4    6     1       0.2159597883E+00       4    6    1         0.1157242699E+02      0.1591625131E+02
          0                 4           2             4    6     1       0.1331141671E+00       4    6    1         0.7190226387E+01      0.8153161683E+01
          0                 5           2             4    6     1       0.7802778661E-01       4    6    1         0.4234609570E+01      0.4391126220E+01
          0                 6           2             4    6     1       0.4559632122E-01       4    6    1         0.2480229906E+01      0.2507234345E+01
          0                 7           2             4    6     1       0.2660428680E-01       4    6    1         0.1448782140E+01      0.1454108690E+01
          0                 8           2             4    6     1       0.1551134156E-01       4    6    1         0.8451656434E+00      0.8464597813E+00
          0                 9           2             4    6     1       0.9040392237E-02       4    6    1         0.4927183026E+00      0.4931233975E+00
          0                10           2             4    6     1       0.5268005777E-02       4    6    1         0.2871550533E+00      0.2873154555E+00
                                                   Max.-Head-Change                         Max.-Flux-Residual
  Residual-Control   Outer-Iter.   Inner-Iter.     Column Row Layer    Maximum-Head-Change  Column Row Layer    Maximum-Flux-Residual          L2-NORM 
          0                11           2             4    6     1       0.3069489671E-02       4    6    1         0.1673267961E+00      0.1674020588E+00
          0                12           2             4    6     1       0.1788408774E-02       4    6    1         0.9749459168E-01      0.9753371715E-01
          0                13           2             4    6     1       0.1041976295E-02       4    6    1         0.5680397378E-01      0.5682548158E-01
          0                14           2             4    6     1       0.6070775105E-03       4    6    1         0.3309547126E-01      0.3310764138E-01
          0                15           2             4    6     1       0.3536943300E-03       4    6    1         0.1928209791E-01      0.1928908583E-01
          0                16           2             4    6     1       0.2060681556E-03       4    6    1         0.1123409120E-01      0.1123813306E-01
          0                17           2             4    6     1       0.1200585488E-03       4    6    1         0.6545164815E-02      0.6547511192E-02
          0                18           1             4    6     1       0.6994795297E-04       4    6    1         0.3813315362E-02      0.3814679952E-02

    ------------------------------------------------
       NWT REQUIRED           18 OUTER ITERATIONS 
       AND A TOTAL OF         35 INNER ITERATIONS.
    ------------------------------------------------

 NO OUTPUT CONTROL FOR STRESS PERIOD   33   TIME STEP   23
 
 SOLVING FOR HEAD 
                                                   Max.-Head-Change                         Max.-Flux-Residual
  Residual-Control   Outer-Iter.   Inner-Iter.     Column Row Layer    Maximum-Head-Change  Column Row Layer    Maximum-Flux-Residual          L2-NORM 
          0                 1           2             4    6     1       0.5605196975E+00       4    6    1         0.3050373071E+02      0.3142902600E+02
          0                 2           2             5    8     1      -0.2444348447E+00       5    8    1        -0.1347196480E+02      0.2920672255E+02
          0                 3           2             4    6     1      -0.2709807279E-01       4    6    1        -0.1490714535E+01      0.2756063697E+01
          0                 4           2             4    6     1      -0.8249195135E-02       4    6    1        -0.4637161452E+00      0.4883064186E+00
          0                 5           2             4    6     1      -0.2511165093E-02       4    6    1        -0.1405148056E+00      0.1406528182E+00
          0                 6           2             4    6     1      -0.7644146687E-03       4    6    1        -0.4279544809E-01      0.4279562518E-01
          0                 7           2             4    6     1      -0.2326876423E-03       4    6    1        -0.1302655291E-01      0.1302663856E-01
          0                 8           1             4    6     1      -0.7082854172E-04       4    6    1        -0.3965157834E-02      0.3965183374E-02

    ------------------------------------------------
       NWT REQUIRED            8 OUTER ITERATIONS 
       AND A TOTAL OF         15 INNER ITERATIONS.
    ------------------------------------------------

 NO OUTPUT CONTROL FOR STRESS PERIOD   33   TIME STEP   24
 
 SOLVING FOR HEAD 
                                                   Max.-Head-Change                         Max.-Flux-Residual
  Residual-Control   Outer-Iter.   Inner-Iter.     Column Row Layer    Maximum-Head-Change  Column Row Layer    Maximum-Flux-Residual          L2-NORM 
          0                 1           2             5    8     1       0.1387017464E+01       5    8    1         0.7609284531E+02      0.7831880318E+02
          0                 2           2             5    8     1       0.7673709887E+00       5    8    1         0.4215953744E+02      0.4327018773E+02
          0                 3           2             5    8     1       0.4644186790E+00       5    8    1         0.2549582717E+02      0.2656909204E+02
          0                 4           2             4    7     1      -0.9208533526E+00       4    7    1        -0.5091695211E+02      0.1183208277E+03
          0                 5           2             4    8     1      -0.5161896810E+00       4    8    1        -0.2856244196E+02      0.3523328809E+02
          0                 6           2             5    8     1      -0.2170361986E+00       5    8    1        -0.1219603732E+02      0.1412602943E+02
          0                 7           2             5    8     1      -0.1273353226E+00       5    8    1        -0.7223018697E+01      0.7240264411E+01
          0                 8           2             5    8     1      -0.7470886429E-01       5    8    1        -0.4232971939E+01      0.4233041284E+01
          0                 9           2             5    8     1      -0.4383247444E-01       5    8    1        -0.2483624264E+01      0.2483628904E+01
          0                10           2             5    8     1      -0.2571693180E-01       5    8    1        -0.1457137521E+01      0.1457140430E+01
                                                   Max.-Head-Change                         Max.-Flux-Residual
  Residual-Control   Outer-Iter.   Inner-Iter.     Column Row Layer    Maximum-Head-Change  Column Row Layer    Maximum-Flux-Residual          L2-NORM 
          0                11           2             5    8     1      -0.1508831451E-01       5    8    1        -0.8549009405E+00      0.8549026466E+00
          0                12           2             5    8     1      -0.8852382859E-02       5    8    1        -0.5015680479E+00      0.5015690496E+00
          0                13           1             5    8     1      -0.5193704384E-02       5    8    1        -0.2942673371E+00      0.2942679249E+00
          0                14           1             5    8     1      -0.3047134766E-02       5    8    1        -0.1726441937E+00      0.1726445387E+00
          0                15           1             5    8     1      -0.1787736013E-02       5    8    1        -0.1012883219E+00      0.1012885243E+00
          0                16           1             5    8     1      -0.1048847493E-02       5    8    1        -0.5942430558E-01      0.5942442433E-01
          0                17           1             5    8     1      -0.6153447409E-03       5    8    1        -0.3486310893E-01      0.3486317860E-01
          0                18           1             5    8     1      -0.3610121450E-03       5    8    1        -0.2045339096E-01      0.2045343184E-01
          0                19           1             5    8     1      -0.2117982131E-03       5    8    1        -0.1199946016E-01      0.1199948414E-01
          0                20           1             5    8     1      -0.1242567301E-03       5    8    1        -0.7039717970E-02      0.7039732038E-02
          0                21           1             5    8     1      -0.7289784619E-04       5    8    1        -0.4129961161E-02      0.4129969415E-02

    ------------------------------------------------
       NWT REQUIRED           21 OUTER ITERATIONS 
       AND A TOTAL OF         33 INNER ITERATIONS.
    ------------------------------------------------

 NO OUTPUT CONTROL FOR STRESS PERIOD   33   TIME STEP   25
 
 SOLVING FOR HEAD 
                                                   Max.-Head-Change                         Max.-Flux-Residual
  Residual-Control   Outer-Iter.   Inner-Iter.     Column Row Layer    Maximum-Head-Change  Column Row Layer    Maximum-Flux-Residual          L2-NORM 
          0                 1           2             4    8     1       0.1697194790E+01       4    8    1         0.9128085313E+02      0.1337210437E+03
          0                 2           2             4    6     1      -0.1821730208E+01       4    6    1        -0.9990220089E+02      0.1874205153E+03
          0                 3           2             4    7     1      -0.8424363972E+00       4    7    1        -0.4632352313E+02      0.8403535128E+02
          0                 4           2             5    7     1      -0.3883391026E+00       5    7    1        -0.2164352266E+02      0.3429795378E+02
          0                 5           2             5    7     1      -0.2274804489E+00       5    7    1        -0.1293723065E+02      0.1694729982E+02
          0                 6           2             5    7     1      -0.1332579108E+00       5    7    1        -0.7559953156E+01      0.9959171299E+01
          0                 7           2             5    7     1      -0.7806237292E-01       5    7    1        -0.4429042256E+01      0.5884733179E+01
          0                 8           2             5    7     1      -0.4578047683E-01       5    7    1        -0.2595768847E+01      0.3478574889E+01
          0                 9           2             5    7     1      -0.2683722755E-01       5    7    1        -0.1521638685E+01      0.2056843243E+01
          0                10           2             5    7     1      -0.1573244140E-01       5    7    1        -0.8919935053E+00      0.1216416183E+01
                                                   Max.-Head-Change                         Max.-Flux-Residual
  Residual-Control   Outer-Iter.   Inner-Iter.     Column Row Layer    Maximum-Head-Change  Column Row Layer    Maximum-Flux-Residual          L2-NORM 
          0                11           2             5    7     1      -0.9222647214E-02       5    7    1        -0.5228933077E+00      0.7195171389E+00
          0                12           2             5    7     1      -0.5406497619E-02       5    7    1        -0.3065247687E+00      0.4256747774E+00
          0                13           2             5    7     1      -0.3169402382E-02       5    7    1        -0.1796879971E+00      0.2518792307E+00
          0                14           2             4    8     1      -0.1892632762E-02       4    8    1        -0.1054777925E+00      0.1490679628E+00
          0                15           2             4    8     1      -0.1130989882E-02       4    8    1        -0.6303081316E-01      0.8823758687E-01
          0                16           2             4    8     1      -0.6758413132E-03       4    8    1        -0.3766503641E-01      0.5223962724E-01
          0                17           2             4    8     1      -0.4038540720E-03       4    8    1        -0.2250699588E-01      0.3093309710E-01
          0                18           2             4    8     1      -0.2413225887E-03       4    8    1        -0.1344901228E-01      0.1831990963E-01
          0                19           2             4    8     1      -0.1442000227E-03       4    8    1        -0.8036316474E-02      0.1085174256E-01
          0                20           1             4    8     1      -0.8616414321E-04       4    8    1        -0.4801948746E-02      0.6429118975E-02

    ------------------------------------------------
       NWT REQUIRED           20 OUTER ITERATIONS 
       AND A TOTAL OF         39 INNER ITERATIONS.
    ------------------------------------------------

 NO OUTPUT CONTROL FOR STRESS PERIOD   33   TIME STEP   26
 
 SOLVING FOR HEAD 
                                                   Max.-Head-Change                         Max.-Flux-Residual
  Residual-Control   Outer-Iter.   Inner-Iter.     Column Row Layer    Maximum-Head-Change  Column Row Layer    Maximum-Flux-Residual          L2-NORM 
          0                 1           2             5    6     1       0.1571988034E+01       5    6    1         0.8518127715E+02      0.1435804861E+03
          0                 2           2             5    6     1       0.5358254943E+00       5    6    1         0.2900993381E+02      0.4720706670E+02
          0                 3           2             4    6     1       0.1603203599E+00       4    6    1         0.8511786817E+01      0.1521739846E+02
          0                 4           2             4    6     1       0.1009314655E+00       4    6    1         0.5425824120E+01      0.6941475627E+01
          0                 5           2             4    6     1       0.5936806305E-01       4    6    1         0.3213445070E+01      0.3463180819E+01
          0                 6           2             4    6     1       0.3476404923E-01       4    6    1         0.1887961469E+01      0.1929224879E+01
          0                 7           2             4    6     1       0.2031209768E-01       4    6    1         0.1104904401E+01      0.1112335066E+01
          0                 8           2             4    6     1       0.1185524264E-01       4    6    1         0.6453991392E+00      0.6469770987E+00
          0                 9           2             4    6     1       0.6915679602E-02       4    6    1         0.3766383472E+00      0.3770623779E+00
          0                10           2             4    6     1       0.4033155746E-02       4    6    1         0.2196946892E+00      0.2198421113E+00
                                                   Max.-Head-Change                         Max.-Flux-Residual
  Residual-Control   Outer-Iter.   Inner-Iter.     Column Row Layer    Maximum-Head-Change  Column Row Layer    Maximum-Flux-Residual          L2-NORM 
          0                11           2             4    6     1       0.2351790192E-02       4    6    1         0.1281194756E+00      0.1281828933E+00
          0                12           2             4    6     1       0.1371273730E-02       4    6    1         0.7470704198E-01      0.7473841877E-01
          0                13           2             4    6     1       0.7995320235E-03       4    6    1         0.4355956758E-01      0.4357637605E-01
          0                14           2             4    6     1       0.4661661040E-03       4    6    1         0.2539764812E-01      0.2540703703E-01
          0                15           2             4    6     1       0.2717954042E-03       4    6    1         0.1480803580E-01      0.1481339390E-01
          0                16           2             4    6     1       0.1584680933E-03       4    6    1         0.8633729517E-02      0.8636826691E-02
          0                17           1             4    6     1       0.9239335044E-04       4    6    1         0.5033823078E-02      0.5035624368E-02

    ------------------------------------------------
       NWT REQUIRED           17 OUTER ITERATIONS 
       AND A TOTAL OF         33 INNER ITERATIONS.
    ------------------------------------------------

 NO OUTPUT CONTROL FOR STRESS PERIOD   33   TIME STEP   27
 
 SOLVING FOR HEAD 
                                                   Max.-Head-Change                         Max.-Flux-Residual
  Residual-Control   Outer-Iter.   Inner-Iter.     Column Row Layer    Maximum-Head-Change  Column Row Layer    Maximum-Flux-Residual          L2-NORM 
          0                 1           2             4    6     1       0.9268527127E+00       4    6    1         0.5047295700E+02      0.5102328212E+02
          0                 2           2             5    8     1      -0.2479751473E+00       5    8    1        -0.1367624663E+02      0.2879690153E+02
          0                 3           2             5    6     1      -0.2457275485E-01       5    6    1        -0.1376970280E+01      0.2550337454E+01
          0                 4           2             5    6     1       0.1691355786E-02       5    6    1         0.9648221083E-01      0.1772676550E+00
          0                 5           2             4    6     1       0.2874955880E-03       4    6    1         0.1574457534E-01      0.1710805982E-01
          0                 6           1             4    6     1       0.8192005205E-04       4    6    1         0.4459474060E-02      0.4460711689E-02

    ------------------------------------------------
       NWT REQUIRED            6 OUTER ITERATIONS 
       AND A TOTAL OF         11 INNER ITERATIONS.
    ------------------------------------------------

 NO OUTPUT CONTROL FOR STRESS PERIOD   33   TIME STEP   28
 
 SOLVING FOR HEAD 
                                                   Max.-Head-Change                         Max.-Flux-Residual
  Residual-Control   Outer-Iter.   Inner-Iter.     Column Row Layer    Maximum-Head-Change  Column Row Layer    Maximum-Flux-Residual          L2-NORM 
          0                 1           2             5    8     1       0.1483819977E+01       5    8    1         0.8156199951E+02      0.8230451982E+02
          0                 2           2             5    8     1       0.8192192692E+00       5    8    1         0.4518044403E+02      0.4557994918E+02
          0                 3           2             5    8     1       0.4955212324E+00       5    8    1         0.2722899430E+02      0.2769723509E+02
          0                 4           2             4    7     1      -0.8957963282E+00       5    6    1        -0.5088019206E+02      0.1176997830E+03
          0                 5           2             5    8     1      -0.3854082756E+00       5    8    1        -0.2154800934E+02      0.2959985738E+02
          0                 6           2             5    8     1      -0.2261304683E+00       5    8    1        -0.1283495256E+02      0.1291306215E+02
          0                 7           2             5    8     1      -0.1326826777E+00       5    8    1        -0.7516988869E+01      0.7517287770E+01
          0                 8           2             5    8     1      -0.7769183055E-01       5    8    1        -0.4406019181E+01      0.4406045199E+01
          0                 9           2             5    8     1      -0.4553669814E-01       5    8    1        -0.2582445961E+01      0.2582460228E+01
          0                10           2             5    8     1      -0.2668986597E-01       5    8    1        -0.1513590107E+01      0.1513598457E+01
                                                   Max.-Head-Change                         Max.-Flux-Residual
  Residual-Control   Outer-Iter.   Inner-Iter.     Column Row Layer    Maximum-Head-Change  Column Row Layer    Maximum-Flux-Residual          L2-NORM 
          0                11           2             5    8     1      -0.1564333288E-01       5    8    1        -0.8871266292E+00      0.8871315263E+00
          0                12           2             5    8     1      -0.9168743947E-02       5    8    1        -0.5199494831E+00      0.5199523541E+00
          0                13           1             5    8     1      -0.5373878543E-02       5    8    1        -0.3047435621E+00      0.3047452451E+00
          0                14           1             5    8     1      -0.3149656298E-02       5    8    1        -0.1786098776E+00      0.1786108641E+00
          0                15           1             5    8     1      -0.1846017115E-02       5    8    1        -0.1046824268E+00      0.1046830050E+00
          0                16           1             5    8     1      -0.1081945732E-02       5    8    1        -0.6135350339E-01      0.6135384228E-01
          0                17           1             5    8     1      -0.6341213907E-03       5    8    1        -0.3595854980E-01      0.3595874841E-01
          0                18           1             5    8     1      -0.3716520084E-03       5    8    1        -0.2107473647E-01      0.2107485287E-01
          0                19           1             5    8     1      -0.2178199786E-03       5    8    1        -0.1235148852E-01      0.1235155675E-01
          0                20           1             5    8     1      -0.1276603644E-03       5    8    1        -0.7238916988E-02      0.7238956974E-02
          0                21           1             5    8     1      -0.7481894605E-04       5    8    1        -0.4242531123E-02      0.4242554568E-02

    ------------------------------------------------
       NWT REQUIRED           21 OUTER ITERATIONS 
       AND A TOTAL OF         33 INNER ITERATIONS.
    ------------------------------------------------

 NO OUTPUT CONTROL FOR STRESS PERIOD   33   TIME STEP   29
 
 SOLVING FOR HEAD 
                                                   Max.-Head-Change                         Max.-Flux-Residual
  Residual-Control   Outer-Iter.   Inner-Iter.     Column Row Layer    Maximum-Head-Change  Column Row Layer    Maximum-Flux-Residual          L2-NORM 
          0                 1           2             4    8     1       0.1566419953E+01       4    8    1         0.8417120374E+02      0.1225317473E+03
          0                 2           2             4    6     1      -0.1826340030E+01       4    6    1        -0.9997579429E+02      0.1920927817E+03
          0                 3           2             4    7     1      -0.8787629841E+00       4    7    1        -0.4825657707E+02      0.8853780328E+02
          0                 4           2             5    7     1      -0.4097422602E+00       5    7    1        -0.2316985107E+02      0.3167697969E+02
          0                 5           2             5    7     1      -0.2401182027E+00       5    7    1        -0.1362780316E+02      0.1796990442E+02
          0                 6           2             5    7     1      -0.1408141007E+00       5    7    1        -0.7984227307E+01      0.1061497545E+02
          0                 7           2             5    7     1      -0.8255306247E-01       5    7    1        -0.4680854266E+01      0.6276121222E+01
          0                 8           2             5    7     1      -0.4839923580E-01       5    7    1        -0.2744113524E+01      0.3709450693E+01
          0                 9           2             5    7     1      -0.2837525077E-01       5    7    1        -0.1608794504E+01      0.2192150587E+01
          0                10           2             5    7     1      -0.1663573487E-01       5    7    1        -0.9431798151E+00      0.1295654264E+01
                                                   Max.-Head-Change                         Max.-Flux-Residual
  Residual-Control   Outer-Iter.   Inner-Iter.     Column Row Layer    Maximum-Head-Change  Column Row Layer    Maximum-Flux-Residual          L2-NORM 
          0                11           2             5    7     1      -0.9753156404E-02       5    7    1        -0.5529550643E+00      0.7658985984E+00
          0                12           2             5    7     1      -0.5718066918E-02       5    7    1        -0.3241799837E+00      0.4528104814E+00
          0                13           2             4    8     1      -0.3378539243E-02       5    7    1        -0.1900568218E+00      0.2677469738E+00
          0                14           2             4    8     1      -0.2015422945E-02       4    8    1        -0.1125012932E+00      0.1583417444E+00
          0                15           2             4    8     1      -0.1202256577E-02       4    8    1        -0.6711007273E-01      0.9365454805E-01
          0                16           2             4    8     1      -0.7171696753E-03       4    8    1        -0.4003240138E-01      0.5540190879E-01
          0                17           2             4    8     1      -0.4277997514E-03       4    8    1        -0.2387972790E-01      0.3277802461E-01
          0                18           2             4    8     1      -0.2551837719E-03       4    8    1        -0.1424429515E-01      0.1939558002E-01
          0                19           2             4    8     1      -0.1522157359E-03       4    8    1        -0.8496625428E-02      0.1147848128E-01
          0                20           1             4    8     1      -0.9079460884E-04       4    8    1        -0.5068109152E-02      0.6794029610E-02

    ------------------------------------------------
       NWT REQUIRED           20 OUTER ITERATIONS 
       AND A TOTAL OF         39 INNER ITERATIONS.
    ------------------------------------------------

 NO OUTPUT CONTROL FOR STRESS PERIOD   33   TIME STEP   30



 STREAM LISTING     PERIOD     33   STEP       30

 LAYER ROW COL. STREAM  RCH.  FLOW INTO     FLOW TO   FLOW OUT OF   OVRLND.     DIRECT     STREAM       STREAM     STREAM     STREAM   STREAMBED  STREAMBED
                SEG.NO.  NO.  STRM. RCH.    AQUIFER    STRM. RCH.    RUNOFF     PRECIP       ET          HEAD       DEPTH      WIDTH   CONDCTNC.   GRADIENT

   1    1    1     1     1    2.2874E+01  2.3513E-01   2.2639E+01  0.000E+00  0.000E+00  0.000E+00  1.09419E+03  1.146E+00  1.260E+01  5.672E-02  1.382E+00
   1    2    2     1     2    2.2639E+01  3.6351E-01   2.2276E+01  0.000E+00  0.000E+00  0.000E+00  1.08920E+03  1.141E+00  1.254E+01  8.778E-02  1.380E+00
   1    3    3     1     3    2.2276E+01  3.0939E-01   2.1966E+01  0.000E+00  0.000E+00  0.000E+00  1.08355E+03  1.136E+00  1.247E+01  7.481E-02  1.379E+00
   1    3    4     1     4    2.1966E+01  2.8439E-01   2.1682E+01  0.000E+00  0.000E+00  0.000E+00  1.07854E+03  1.131E+00  1.240E+01  6.885E-02  1.377E+00
   1    4    5     2     1    1.9682E+01  3.1521E-01   1.9367E+01  0.000E+00  0.000E+00  0.000E+00  1.07298E+03  1.041E+00  1.200E+01  7.800E-02  1.347E+00
   1    5    6     2     2    1.9367E+01  2.4193E-01   1.9125E+01  0.000E+00  0.000E+00  0.000E+00  1.06754E+03  1.032E+00  1.200E+01  6.000E-02  1.344E+00
   1    6    6     2     3    1.9125E+01  2.4146E-01   1.8883E+01  0.000E+00  0.000E+00  0.000E+00  1.06282E+03  1.024E+00  1.200E+01  6.000E-02  1.341E+00
   1    7    6     2     4    1.8883E+01  2.4099E-01   1.8642E+01  0.000E+00  0.000E+00  0.000E+00  1.05809E+03  1.017E+00  1.200E+01  6.000E-02  1.339E+00
   1    8    6     2     5    1.8642E+01  2.4052E-01   1.8402E+01  0.000E+00  0.000E+00  0.000E+00  1.05337E+03  1.009E+00  1.200E+01  6.000E-02  1.336E+00
   1    3    5     3     1    2.0000E+00  2.8252E-01   1.7175E+00  0.000E+00  0.000E+00  0.000E+00  1.07555E+03  1.909E+00  9.636E+00  7.227E-02  1.955E+00
   1    3    6     3     2    1.7175E+00  2.4905E-01   1.4684E+00  0.000E+00  0.000E+00  0.000E+00  1.07264E+03  1.727E+00  8.909E+00  6.682E-02  1.864E+00
   1    3    7     3     3    1.4684E+00  1.9718E-01   1.2712E+00  0.000E+00  0.000E+00  0.000E+00  1.06987E+03  1.555E+00  8.218E+00  5.547E-02  1.777E+00
   1    4    8     3     4    1.2712E+00  2.2567E-01   1.0456E+00  0.000E+00  0.000E+00  0.000E+00  1.06682E+03  1.364E+00  7.455E+00  6.709E-02  1.682E+00
   1    5    8     3     5    1.0456E+00  1.5790E-01   8.8768E-01  0.000E+00  0.000E+00  0.000E+00  1.06362E+03  1.164E+00  6.655E+00  4.991E-02  1.582E+00
   1    6    8     3     6    8.8768E-01  5.5980E-02   8.3170E-01  0.000E+00  0.000E+00  0.000E+00  1.06158E+03  1.036E+00  6.145E+00  1.844E-02  1.518E+00
   1    5   10     4     1    1.0000E+01  9.0919E-02   9.9091E+00  0.000E+00  0.000E+00  0.000E+00  1.07836E+03  6.368E-01  1.000E+01  2.500E-02  1.212E+00
   1    5    9     4     2    9.9091E+00  1.8158E-01   9.7275E+00  0.000E+00  0.000E+00  0.000E+00  1.07154E+03  6.315E-01  1.000E+01  5.000E-02  1.211E+00
   1    6    8     4     3    9.7275E+00  1.2689E-01   9.6006E+00  0.000E+00  0.000E+00  0.000E+00  1.06381E+03  6.256E-01  1.000E+01  3.500E-02  1.209E+00
   1    6    8     5     1    1.0432E+01  2.2686E-01   1.0205E+01  0.000E+00  0.000E+00  0.000E+00  1.05868E+03  6.790E-01  1.542E+01  6.166E-02  1.226E+00
   1    7    7     5     2    1.0205E+01  2.7894E-01   9.9265E+00  0.000E+00  0.000E+00  0.000E+00  1.05417E+03  6.732E-01  1.519E+01  7.594E-02  1.224E+00
   1    8    7     5     3    9.9265E+00  1.9221E-01   9.7343E+00  0.000E+00  0.000E+00  0.000E+00  1.04992E+03  6.676E-01  1.497E+01  5.241E-02  1.223E+00
   1    8    6     5     4    9.7343E+00  1.3577E-01   9.5985E+00  0.000E+00  0.000E+00  0.000E+00  1.04691E+03  6.637E-01  1.482E+01  3.706E-02  1.221E+00
   1    9    6     6     1    9.5985E+00  2.2097E-01   9.3776E+00  0.000E+00  0.000E+00  0.000E+00  1.04341E+03  6.828E-01  1.200E+01  6.000E-02  1.228E+00
   1   10    7     6     2    9.3776E+00  2.2039E-01   9.1572E+00  0.000E+00  0.000E+00  0.000E+00  1.03885E+03  6.732E-01  1.200E+01  6.000E-02  1.224E+00
   1   11    7     6     3    9.1572E+00  2.1981E-01   8.9374E+00  0.000E+00  0.000E+00  0.000E+00  1.03430E+03  6.636E-01  1.200E+01  6.000E-02  1.221E+00
   1   12    7     6     4    8.9374E+00  2.1923E-01   8.7181E+00  0.000E+00  0.000E+00  0.000E+00  1.02974E+03  6.539E-01  1.200E+01  6.000E-02  1.218E+00
   1   13    7     6     5    8.7181E+00  4.9792E-03   8.7132E+00  0.000E+00  0.000E+00  0.000E+00  1.02656E+03  6.489E-01  1.200E+01  2.400E-02  6.916E-02
   1   14    9     7     1    1.5000E+02  1.4132E+00   1.4859E+02  0.000E+00  0.000E+00  0.000E+00  1.03987E+03  2.288E+00  5.529E+01  5.593E-01  8.423E-01
   1   13    8     7     2    1.4859E+02  2.0774E+00   1.4651E+02  0.000E+00  0.000E+00  0.000E+00  1.03478E+03  2.278E+00  5.525E+01  6.147E-01  1.127E+00
   1   13    7     7     3    1.4651E+02  1.8629E+00   1.4465E+02  0.000E+00  0.000E+00  0.000E+00  1.02969E+03  2.268E+00  5.520E+01  5.583E-01  1.112E+00
   1   13    6     8     1    1.5336E+02  1.1987E+00   1.5216E+02  0.000E+00  0.000E+00  0.000E+00  1.02471E+03  2.836E+00  4.112E+01  4.191E-01  9.534E-01
   1   13    5     8     2    1.5216E+02  4.4299E-01   1.5172E+02  0.000E+00  0.000E+00  0.000E+00  1.01846E+03  2.830E+00  4.104E+01  4.182E-01  3.531E-01
   1   13    4     8     3    1.5172E+02 -1.5493E+00   1.5327E+02  0.000E+00  0.000E+00  0.000E+00  1.01221E+03  2.834E+00  4.110E+01  4.188E+00 -1.233E-01
   1   13    3     8     4    1.5327E+02 -3.2410E+00   1.5651E+02  0.000E+00  0.000E+00  0.000E+00  1.00598E+03  2.851E+00  4.134E+01  4.213E+00 -2.565E-01
   1   13    2     8     5    1.5651E+02 -2.5320E+00   1.5904E+02  0.000E+00  0.000E+00  0.000E+00  9.99746E+02  2.871E+00  4.163E+01  4.242E+00 -1.990E-01
   1   13    1     8     6    1.5904E+02 -1.9939E+00   1.6103E+02  0.000E+00  0.000E+00  0.000E+00  9.94761E+02  2.886E+00  4.185E+01  2.559E+00 -2.598E-01
   1    8    6     9     1    1.8402E+01  0.0000E+00   1.8402E+01  0.000E+00  0.000E+00  0.000E+00  1.08202E+03  3.267E+00  4.000E+00  0.000E+00  2.089E+00
   1    8    5     9     2    1.8402E+01  0.0000E+00   1.8402E+01  0.000E+00  0.000E+00  0.000E+00  1.08152E+03  3.267E+00  4.000E+00  0.000E+00  2.089E+00





UNSATURATED ZONE PACKAGE VOLUMETRIC BUDGET FOR  TIME STEP    30 STRESS PERIOD   33
  ------------------------------------------------------------------------------



     CUMULATIVE VOLUMES      L**3       RATES FOR THIS TIME STEP      L**3/T
     ------------------                 ------------------------

           IN:                                      IN:
           ---                                      ---
        INFILTRATION =  9515421453.3477          INFILTRATION =         619.2496

          OUT:                                     OUT:
          ----                                     ----
              UZF ET =  1245909228.3568                UZF ET =          49.5675
        UZF RECHARGE =  7481569443.9548          UZF RECHARGE =          58.7590

            IN - OUT =   787942781.0361              IN - OUT =         510.9232

          STORAGE:                                 STORAGE:
          --------                                 --------
      STORAGE CHANGE =   788921533.0287        STORAGE CHANGE =         510.9232

 PERCENT DISCREPANCY IS DIFFERENCE BETWEEN IN-OUT MINUS CHANGE IN STORAGE
 DIVIDED BY THE AVERAGE OF IN AND OUT TIMES 100

 PERCENT DISCREPANCY =          -0.00     PERCENT DISCREPANCY =           0.00






1
  VOLUMETRIC BUDGET FOR AGRICULTURAL FIELDS AT  END OF TIME STEP   30, STRESS PERIOD  33
  ------------------------------------------------------------------------------

     CUMULATIVE VOLUMES      L**3       RATES FOR THIS TIME STEP      L**3/T
     ------------------                 ------------------------

           IN:                                      IN:
           ---                                      ---
               AG WELLS  =  9002333184.0000                 AG WELLS  =         600.0000
      DIVERSION SEGMENTS =   441719328.0000        DIVERSION SEGMENTS =          18.4018
           GW IRRIGATION =           0.0000             GW IRRIGATION =           0.0000
           SW IRRIGATION =           0.0000             SW IRRIGATION =           0.0000
        SYSTEM LOSSES GW =           0.0000          SYSTEM LOSSES GW =           0.0000
        SYSTEM LOSSES SW =           0.0000          SYSTEM LOSSES SW =           0.0000

                TOTAL IN =  9444052992.0000                  TOTAL IN =         618.4018

          OUT:                                     OUT:
          ----                                     ----
               AG WELLS  =           0.0000                 AG WELLS  =           0.0000
      DIVERSION SEGMENTS =           0.0000        DIVERSION SEGMENTS =           0.0000
           GW IRRIGATION =  9002333184.0000             GW IRRIGATION =         600.0000
           SW IRRIGATION =   441727328.0000             SW IRRIGATION =          18.4022
        SYSTEM LOSSES GW =           0.0000          SYSTEM LOSSES GW =           0.0000
        SYSTEM LOSSES SW =           0.0000          SYSTEM LOSSES SW =           0.0000

               TOTAL OUT =  9444060160.0000                 TOTAL OUT =         618.4022

                IN - OUT =       -7168.0000                  IN - OUT =      -3.6621E-04

     PERCENT DISCREPANCY =          -0.00         PERCENT DISCREPANCY =          -0.00



1
  VOLUMETRIC BUDGET FOR ENTIRE MODEL AT END OF TIME STEP   30, STRESS PERIOD  33
  ------------------------------------------------------------------------------

     CUMULATIVE VOLUMES      L**3       RATES FOR THIS TIME STEP      L**3/T
     ------------------                 ------------------------

           IN:                                      IN:
           ---                                      ---
             STORAGE     =  7728052736.0000               STORAGE     =         539.1843
       CONSTANT HEAD     =           0.0000         CONSTANT HEAD     =           0.0000
     HEAD DEP BOUNDS     =    24342752.0000       HEAD DEP BOUNDS     =           0.2910
      STREAM LEAKAGE     =  1031804160.0000        STREAM LEAKAGE     =          12.7546
        UZF RECHARGE     =  7481570304.0000          UZF RECHARGE     =          58.7590
               GW ET     =           0.0000                 GW ET     =           0.0000
     SURFACE LEAKAGE     =           0.0000       SURFACE LEAKAGE     =           0.0000
           AG WELLS      =           0.0000             AG WELLS      =           0.0000

                TOTAL IN = 16265769984.0000                  TOTAL IN =         610.9888

          OUT:                                     OUT:
          ----                                     ----
             STORAGE     =  6438957568.0000               STORAGE     =           1.3917
       CONSTANT HEAD     =           0.0000         CONSTANT HEAD     =           0.0000
     HEAD DEP BOUNDS     =    24252310.0000       HEAD DEP BOUNDS     =           0.2865
      STREAM LEAKAGE     =   800118464.0000        STREAM LEAKAGE     =           9.3162
        UZF RECHARGE     =           0.0000          UZF RECHARGE     =           0.0000
               GW ET     =           0.0000                 GW ET     =           0.0000
     SURFACE LEAKAGE     =           0.0000       SURFACE LEAKAGE     =           0.0000
           AG WELLS      =  9002333184.0000             AG WELLS      =         600.0000

               TOTAL OUT = 16265661440.0000                 TOTAL OUT =         610.9945

                IN - OUT =      108544.0000                  IN - OUT =      -5.6763E-03

     PERCENT DISCREPANCY =           0.00         PERCENT DISCREPANCY =          -0.00






         TIME SUMMARY AT END OF TIME STEP   30 IN STRESS PERIOD   33
                    SECONDS     MINUTES      HOURS       DAYS        YEARS
                    -----------------------------------------------------------
   TIME STEP LENGTH  87667.      1461.1      24.352      1.0147     2.77799E-03
 STRESS PERIOD TIME 2.63000E+06  43833.      730.56      30.440     8.33397E-02
         TOTAL TIME 8.42463E+07 1.40410E+06  23402.      975.07      2.6696    
1
1
                            STRESS PERIOD NO.   34, LENGTH =   2630000.    
                            -----------------------------------------------

                              NUMBER OF TIME STEPS =    30

                               MULTIPLIER FOR DELT =     1.000

                            INITIAL TIME STEP SIZE =   87666.66    

 REUSING NON-PARAMETER GHB CELLS FROM LAST STRESS PERIOD

      2 GHB CELLS

 REUSING STREAM SEGMENT DATA FROM LAST STRESS PERIOD



            AREAL INFILTRATION RATE
 READING ON UNIT   19 WITH FORMAT: (FREE)              

            1           2           3           4           5           6           7           8           9          10
 ........................................................................................................................
   1   1.0000E-10  2.0000E-10   0.000       0.000       0.000       0.000       0.000       0.000       0.000       0.000    
   2   2.0000E-10  1.0000E-10  2.0000E-10   0.000       0.000      8.0000E-10  8.0000E-10  5.0000E-10   0.000       0.000    
   3    0.000      5.0000E-10  1.0000E-10  1.0000E-10  8.0000E-10  8.0000E-10  5.0000E-10  5.0000E-10   0.000       0.000    
   4   8.0000E-10  5.0000E-10  1.0000E-10  1.0000E-10  1.0000E-10  1.0000E-10  1.0000E-10  1.0000E-10  2.0000E-10   0.000    
   5   8.0000E-10  5.0000E-10  1.0000E-10  1.0000E-10  1.0000E-10  1.0000E-10  1.0000E-10  1.0000E-10  1.0000E-10  1.0000E-10
   6   8.0000E-10  5.0000E-10  5.0000E-10  2.0000E-10  2.0000E-10  1.0000E-10  1.0000E-10  1.0000E-10  1.0000E-10  5.0000E-10
   7   8.0000E-10  5.0000E-10  5.0000E-10  2.0000E-10  2.0000E-10  1.0000E-10  1.0000E-10  2.0000E-10  2.0000E-10   0.000    
   8    0.000      5.0000E-10  5.0000E-10  2.0000E-10  2.0000E-10  1.0000E-10  1.0000E-10  2.0000E-10  5.0000E-10   0.000    
   9    0.000      5.0000E-10  5.0000E-10  2.0000E-10  2.0000E-10  1.0000E-10  1.0000E-10  2.0000E-10  5.0000E-10   0.000    
  10    0.000      5.0000E-10  5.0000E-10  2.0000E-10  2.0000E-10  1.0000E-10  1.0000E-10  2.0000E-10  5.0000E-10  8.0000E-10
  11    0.000      1.0000E-10  1.0000E-10  1.0000E-10  1.0000E-10  1.0000E-10  1.0000E-10  2.0000E-10  5.0000E-10   0.000    
  12   1.0000E-10  1.0000E-10  1.0000E-10  1.0000E-10  1.0000E-10  1.0000E-10  1.0000E-10  1.0000E-10  2.0000E-10   0.000    
  13   1.0000E-10  1.0000E-10  2.0000E-10  2.0000E-10  2.0000E-10  2.0000E-10  2.0000E-10  1.0000E-10  1.0000E-10   0.000    
  14    0.000      2.0000E-10  5.0000E-10  5.0000E-10  5.0000E-10  5.0000E-10  5.0000E-10  2.0000E-10  1.0000E-10   0.000    
  15    0.000       0.000      8.0000E-10  8.0000E-10  8.0000E-10  8.0000E-10   0.000       0.000       0.000       0.000    

                  ET RATE =  7.500000E-08

 USING ET EXTINCTION DEPTH FROM PREVIOUS STRESS PERIOD. CURRENT PERIOD IS:      34

 USING EXTINCTION WATER CONTENT FROM PREVIOUS STRESS PERIOD. CURRENT PERIOD IS:      34

 USING AIR ENTRY PRESSURE FROM PREVIOUS STRESS PERIOD. CURRENT PERIOD IS:      34

 USING ROOT PRESSURE HEAD FROM PREVIOUS STRESS PERIOD. CURRENT PERIOD IS:      34

 USING ROOT ACTIVITY FROM PREVIOUS STRESS PERIOD. CURRENT PERIOD IS:      34

 PROCESSING AG STRESS PERIOD DATA

 READING AG STRESS PERIOD DATA

 READING IRRIGATION SEGMENT

 READING IRRIGATION WELL

 READING SUPPLEMENTAL WELL

 END PROCESSING AG STRESS PERIOD DATA OPTIONS
 
 SOLVING FOR HEAD 
                                                   Max.-Head-Change                         Max.-Flux-Residual
  Residual-Control   Outer-Iter.   Inner-Iter.     Column Row Layer    Maximum-Head-Change  Column Row Layer    Maximum-Flux-Residual          L2-NORM 
          0                 1           2             5    7     1       0.1530604283E+01       5    7    1         0.8204974774E+02      0.1462471832E+03
          0                 2           2             4    7     1       0.6206016384E+00       5    6    1         0.3361494082E+02      0.5607675721E+02
          0                 3           2             4    7     1       0.1826135078E+00       4    7    1         0.9691782413E+01      0.1728823922E+02
          0                 4           2             4    6     1       0.7237093765E-01       4    6    1         0.3861158418E+01      0.6099671534E+01
          0                 5           2             4    6     1       0.4277815605E-01       4    6    1         0.2307074237E+01      0.2698269745E+01
          0                 6           2             4    6     1       0.2510979141E-01       4    6    1         0.1361226971E+01      0.1425373443E+01
          0                 7           2             4    6     1       0.1468884940E-01       4    6    1         0.7983068356E+00      0.8092058261E+00
          0                 8           2             4    6     1       0.8578444443E-02       4    6    1         0.4667967019E+00      0.4688749572E+00
          0                 9           2             4    6     1       0.5005791570E-02       4    6    1         0.2725565912E+00      0.2730371646E+00
          0                10           2             4    6     1       0.2919852622E-02       4    6    1         0.1590287311E+00      0.1591714236E+00
                                                   Max.-Head-Change                         Max.-Flux-Residual
  Residual-Control   Outer-Iter.   Inner-Iter.     Column Row Layer    Maximum-Head-Change  Column Row Layer    Maximum-Flux-Residual          L2-NORM 
          0                11           2             4    6     1       0.1702793706E-02       4    6    1         0.9275586253E-01      0.9281007068E-01
          0                12           2             4    6     1       0.9929332146E-03       4    6    1         0.5409179497E-01      0.5411658883E-01
          0                13           2             4    6     1       0.5789708305E-03       4    6    1         0.3154161370E-01      0.3155432875E-01
          0                14           2             4    6     1       0.3375846878E-03       4    6    1         0.1839152894E-01      0.1839847226E-01
          0                15           2             4    6     1       0.1968355513E-03       4    6    1         0.1072364781E-01      0.1072756497E-01
          0                16           2             4    6     1       0.1147682436E-03       4    6    1         0.6252629216E-02      0.6254875888E-02
          0                17           1             4    6     1       0.6691733432E-04       4    6    1         0.3645696713E-02      0.3646996002E-02

    ------------------------------------------------
       NWT REQUIRED           17 OUTER ITERATIONS 
       AND A TOTAL OF         33 INNER ITERATIONS.
    ------------------------------------------------

 NO OUTPUT CONTROL FOR STRESS PERIOD   34   TIME STEP    1
 
 SOLVING FOR HEAD 
                                                   Max.-Head-Change                         Max.-Flux-Residual
  Residual-Control   Outer-Iter.   Inner-Iter.     Column Row Layer    Maximum-Head-Change  Column Row Layer    Maximum-Flux-Residual          L2-NORM 
          0                 1           2             4    6     1       0.1219873733E+01       4    6    1         0.6645297376E+02      0.6704641742E+02
          0                 2           2             4    6     1       0.3475099665E+00       4    6    1         0.1892545466E+02      0.1909196964E+02
          0                 3           2             4    6     1       0.9917638338E-01       4    6    1         0.5392427324E+01      0.5449402698E+01
          0                 4           2             4    6     1       0.2833352326E-01       4    6    1         0.1539822492E+01      0.1560190692E+01
          0                 5           2             4    6     1       0.8100460848E-02       4    6    1         0.4399916588E+00      0.4473288145E+00
          0                 6           2             4    6     1       0.2317553738E-02       4    6    1         0.1258167773E+00      0.1284455178E+00
          0                 7           2             4    6     1       0.6635252963E-03       4    6    1         0.3600297414E-01      0.3693437425E-01
          0                 8           2             4    6     1       0.1901034550E-03       4    6    1         0.1030969588E-01      0.1063541287E-01
          0                 9           1             4    6     1       0.5450354790E-04       4    6    1         0.2954316378E-02      0.3066726002E-02

    ------------------------------------------------
       NWT REQUIRED            9 OUTER ITERATIONS 
       AND A TOTAL OF         17 INNER ITERATIONS.
    ------------------------------------------------

 NO OUTPUT CONTROL FOR STRESS PERIOD   34   TIME STEP    2
 
 SOLVING FOR HEAD 
                                                   Max.-Head-Change                         Max.-Flux-Residual
  Residual-Control   Outer-Iter.   Inner-Iter.     Column Row Layer    Maximum-Head-Change  Column Row Layer    Maximum-Flux-Residual          L2-NORM 
          0                 1           2             5    8     1       0.1632476099E+01       5    8    1         0.8971681242E+02      0.9052319110E+02
          0                 2           2             5    8     1       0.9378815351E+00       5    8    1         0.5161866391E+02      0.5213804725E+02
          0                 3           2             5    8     1       0.5418002713E+00       5    8    1         0.2978829419E+02      0.3016835892E+02
          0                 4           2             5    8     1       0.3118483743E+00       5    8    1         0.1715824689E+02      0.1743406623E+02
          0                 5           2             5    8     1       0.1363837047E+00       5    8    1         0.7494753408E+01      0.7751517820E+01
          0                 6           2             5    8     1       0.3858053432E-01       5    8    1         0.2109500941E+01      0.2442552989E+01
          0                 7           2             4    8     1       0.1375802165E-01       4    8    1         0.7389186514E+00      0.9514241780E+00
          0                 8           2             4    8     1       0.8106680041E-02       4    8    1         0.4380880785E+00      0.4708511493E+00
          0                 9           2             4    8     1       0.4757879329E-02       4    8    1         0.2578668326E+00      0.2628886567E+00
          0                10           2             4    8     1       0.2787194009E-02       4    8    1         0.1512693791E+00      0.1521157494E+00
                                                   Max.-Head-Change                         Max.-Flux-Residual
  Residual-Control   Outer-Iter.   Inner-Iter.     Column Row Layer    Maximum-Head-Change  Column Row Layer    Maximum-Flux-Residual          L2-NORM 
          0                11           2             4    8     1       0.1631287476E-02       4    8    1         0.8859357848E-01      0.8876667187E-01
          0                12           2             4    8     1       0.9543475277E-03       4    8    1         0.5184613971E-01      0.5189303014E-01
          0                13           2             4    8     1       0.5582036139E-03       4    8    1         0.3032975501E-01      0.3034678011E-01
          0                14           2             4    8     1       0.3264641218E-03       4    8    1         0.1773959351E-01      0.1774728378E-01
          0                15           2             4    8     1       0.1909226420E-03       4    8    1         0.1037483096E-01      0.1037877918E-01
          0                16           2             4    8     1       0.1116527351E-03       4    8    1         0.6067368618E-02      0.6069534763E-02
          0                17           1             4    8     1       0.6529447706E-04       4    8    1         0.3548224139E-02      0.3549452342E-02

    ------------------------------------------------
       NWT REQUIRED           17 OUTER ITERATIONS 
       AND A TOTAL OF         33 INNER ITERATIONS.
    ------------------------------------------------

 NO OUTPUT CONTROL FOR STRESS PERIOD   34   TIME STEP    3
 
 SOLVING FOR HEAD 
                                                   Max.-Head-Change                         Max.-Flux-Residual
  Residual-Control   Outer-Iter.   Inner-Iter.     Column Row Layer    Maximum-Head-Change  Column Row Layer    Maximum-Flux-Residual          L2-NORM 
          0                 1           2             4    8     1       0.1956606091E+01       4    8    1         0.1055139005E+03      0.1735073986E+03
          0                 2           2             5    8     1      -0.1842392526E+01       5    8    1        -0.1002286683E+03      0.1772067504E+03
          0                 3           2             4    7     1      -0.6936187029E+00       4    7    1        -0.3821804337E+02      0.6234124220E+02
          0                 4           2             4    7     1      -0.4205674759E+00       4    7    1        -0.2314043861E+02      0.3713880360E+02
          0                 5           2             4    7     1      -0.2550505748E+00       4    7    1        -0.1403023273E+02      0.2244400916E+02
          0                 6           2             4    7     1      -0.1547098117E+00       4    7    1        -0.8508590706E+01      0.1356826107E+02
          0                 7           2             4    7     1      -0.9386461127E-01       4    7    1        -0.5161214652E+01      0.8206124475E+01
          0                 8           2             4    7     1      -0.5696014551E-01       4    7    1        -0.3131398338E+01      0.4964624174E+01
          0                 9           2             4    7     1      -0.3457155503E-01       4    7    1        -0.1900244497E+01      0.3004403439E+01
          0                10           2             4    7     1      -0.2098646631E-01       4    7    1        -0.1153343834E+01      0.1818629159E+01
                                                   Max.-Head-Change                         Max.-Flux-Residual
  Residual-Control   Outer-Iter.   Inner-Iter.     Column Row Layer    Maximum-Head-Change  Column Row Layer    Maximum-Flux-Residual          L2-NORM 
          0                11           2             4    7     1      -0.1274168000E-01       4    7    1        -0.7001324235E+00      0.1101121884E+01
          0                12           2             5    6     1      -0.6150250347E-02       5    6    1        -0.3436629117E+00      0.5567002396E+00
          0                13           2             5    6     1      -0.3664227065E-02       5    6    1        -0.2047748763E+00      0.3089588604E+00
          0                14           2             5    6     1      -0.2183143540E-02       5    6    1        -0.1219998474E+00      0.1839230628E+00
          0                15           2             5    6     1      -0.1300744757E-02       5    6    1        -0.7268649937E-01      0.1097072233E+00
          0                16           2             5    6     1      -0.7750171888E-03       5    6    1        -0.4330699360E-01      0.6543615584E-01
          0                17           2             5    6     1      -0.4617848074E-03       5    6    1        -0.2580309148E-01      0.3903002371E-01
          0                18           2             5    6     1      -0.2751544977E-03       5    6    1        -0.1537426873E-01      0.2327972945E-01
          0                19           2             5    6     1      -0.1639539522E-03       5    6    1        -0.9160640214E-02      0.1388529415E-01
          0                20           1             5    6     1      -0.9769560419E-04       5    6    1        -0.5458401107E-02      0.8281905090E-02

    ------------------------------------------------
       NWT REQUIRED           20 OUTER ITERATIONS 
       AND A TOTAL OF         39 INNER ITERATIONS.
    ------------------------------------------------

 NO OUTPUT CONTROL FOR STRESS PERIOD   34   TIME STEP    4
 
 SOLVING FOR HEAD 
                                                   Max.-Head-Change                         Max.-Flux-Residual
  Residual-Control   Outer-Iter.   Inner-Iter.     Column Row Layer    Maximum-Head-Change  Column Row Layer    Maximum-Flux-Residual          L2-NORM 
          0                 1           2             4    7     1       0.1990461921E+01       4    7    1         0.1068494149E+03      0.1600423180E+03
          0                 2           2             4    7     1       0.5616912016E+00       4    7    1         0.3006411239E+02      0.4916641225E+02
          0                 3           2             4    6     1       0.2925661209E+00       4    6    1         0.1569344978E+02      0.2030967761E+02
          0                 4           2             4    6     1       0.1721041146E+00       4    6    1         0.9311970269E+01      0.1006813920E+02
          0                 5           2             4    6     1       0.1007659143E+00       4    6    1         0.5473365149E+01      0.5597664158E+01
          0                 6           2             4    6     1       0.5884803617E-01       4    6    1         0.3202514195E+01      0.3224916724E+01
          0                 7           2             4    6     1       0.3432513070E-01       4    6    1         0.1869695997E+01      0.1874472943E+01
          0                 8           2             4    6     1       0.2000917381E-01       4    6    1         0.1090394619E+01      0.1091678167E+01
          0                 9           2             4    6     1       0.1166049549E-01       4    6    1         0.6355762505E+00      0.6360189340E+00
          0                10           2             4    6     1       0.6794248624E-02       4    6    1         0.3703730315E+00      0.3705613025E+00
                                                   Max.-Head-Change                         Max.-Flux-Residual
  Residual-Control   Outer-Iter.   Inner-Iter.     Column Row Layer    Maximum-Head-Change  Column Row Layer    Maximum-Flux-Residual          L2-NORM 
          0                11           2             4    6     1       0.3958536676E-02       4    6    1         0.2158022021E+00      0.2158944729E+00
          0                12           2             4    6     1       0.2306282761E-02       4    6    1         0.1257318280E+00      0.1257809544E+00
          0                13           2             4    6     1       0.1343639809E-02       4    6    1         0.7325229011E-01      0.7327963414E-01
          0                14           2             4    6     1       0.7827975140E-03       4    6    1         0.4267667574E-01      0.4269224698E-01
          0                15           2             4    6     1       0.4560517942E-03       4    6    1         0.2486318151E-01      0.2487215101E-01
          0                16           2             4    6     1       0.2656916999E-03       4    6    1         0.1448509029E-01      0.1449028661E-01
          0                17           2             4    6     1       0.1547894497E-03       4    6    1         0.8438882030E-02      0.8441900964E-02
          0                18           1             4    6     1       0.9017880999E-04       4    6    1         0.4916411544E-02      0.4918167940E-02

    ------------------------------------------------
       NWT REQUIRED           18 OUTER ITERATIONS 
       AND A TOTAL OF         35 INNER ITERATIONS.
    ------------------------------------------------

 NO OUTPUT CONTROL FOR STRESS PERIOD   34   TIME STEP    5
 
 SOLVING FOR HEAD 
                                                   Max.-Head-Change                         Max.-Flux-Residual
  Residual-Control   Outer-Iter.   Inner-Iter.     Column Row Layer    Maximum-Head-Change  Column Row Layer    Maximum-Flux-Residual          L2-NORM 
          0                 1           2             4    6     1       0.5490512859E+00       4    6    1         0.2989932012E+02      0.3057675273E+02
          0                 2           2             4    6     1       0.1562708870E+00       4    6    1         0.8519340278E+01      0.8583983519E+01
          0                 3           2             4    6     1       0.4451665009E-01       4    6    1         0.2424031032E+01      0.2442033088E+01
          0                 4           2             4    6     1       0.1278215710E-01       4    6    1         0.6946753101E+00      0.7015620504E+00
          0                 5           2             4    6     1       0.3654182720E-02       4    6    1         0.1984825100E+00      0.2011762443E+00
          0                 6           2             4    6     1       0.1045440318E-02       4    6    1         0.5675376402E-01      0.5777739025E-01
          0                 7           2             4    6     1       0.2993137908E-03       4    6    1         0.1624003734E-01      0.1661797705E-01
          0                 8           1             4    6     1       0.8575682986E-04       4    6    1         0.4650469009E-02      0.4786486291E-02

    ------------------------------------------------
       NWT REQUIRED            8 OUTER ITERATIONS 
       AND A TOTAL OF         15 INNER ITERATIONS.
    ------------------------------------------------

 NO OUTPUT CONTROL FOR STRESS PERIOD   34   TIME STEP    6
 
 SOLVING FOR HEAD 
                                                   Max.-Head-Change                         Max.-Flux-Residual
  Residual-Control   Outer-Iter.   Inner-Iter.     Column Row Layer    Maximum-Head-Change  Column Row Layer    Maximum-Flux-Residual          L2-NORM 
          0                 1           2             5    8     1       0.1528933897E+01       5    8    1         0.8361609590E+02      0.9004507159E+02
          0                 2           2             5    8     1       0.8487143131E+00       5    8    1         0.4643125188E+02      0.5069428132E+02
          0                 3           2             5    8     1       0.2427046381E+00       5    8    1         0.1314409196E+02      0.1812453089E+02
          0                 4           2             4    8     1       0.1225483922E+00       4    8    1         0.6594106950E+01      0.8357831348E+01
          0                 5           2             4    8     1       0.7218963246E-01       4    8    1         0.3900997857E+01      0.4539898193E+01
          0                 6           2             4    8     1       0.4240862107E-01       4    8    1         0.2296321633E+01      0.2605500895E+01
          0                 7           2             4    8     1       0.2488101106E-01       4    8    1         0.1348543547E+01      0.1515723791E+01
          0                 8           2             4    8     1       0.1458849988E-01       4    8    1         0.7910588956E+00      0.8843791984E+00
          0                 9           2             4    8     1       0.8551094846E-02       4    8    1         0.4637862107E+00      0.5163318410E+00
          0                10           2             4    8     1       0.5011501199E-02       4    8    1         0.2718395405E+00      0.3015009734E+00
                                                   Max.-Head-Change                         Max.-Flux-Residual
  Residual-Control   Outer-Iter.   Inner-Iter.     Column Row Layer    Maximum-Head-Change  Column Row Layer    Maximum-Flux-Residual          L2-NORM 
          0                11           2             4    8     1       0.2936843066E-02       4    8    1         0.1593128022E+00      0.1760703594E+00
          0                12           2             4    8     1       0.1720979187E-02       4    8    1         0.9335969560E-01      0.1028302138E+00
          0                13           2             4    8     1       0.1008462528E-02       4    8    1         0.5470814883E-01      0.6006127847E-01
          0                14           2             4    8     1       0.5909309108E-03       4    8    1         0.3205787814E-01      0.3508399142E-01
          0                15           2             4    8     1       0.3462646635E-03       4    8    1         0.1878498068E-01      0.2049576382E-01
          0                16           2             4    8     1       0.2028967232E-03       4    8    1         0.1100731677E-01      0.1197455355E-01
          0                17           2             4    8     1       0.1188879233E-03       4    8    1         0.6449821189E-02      0.6996707962E-02
          0                18           1             4    8     1       0.6966210031E-04       4    8    1         0.3779286283E-02      0.4088521467E-02

    ------------------------------------------------
       NWT REQUIRED           18 OUTER ITERATIONS 
       AND A TOTAL OF         35 INNER ITERATIONS.
    ------------------------------------------------

 NO OUTPUT CONTROL FOR STRESS PERIOD   34   TIME STEP    7
 
 SOLVING FOR HEAD 
                                                   Max.-Head-Change                         Max.-Flux-Residual
  Residual-Control   Outer-Iter.   Inner-Iter.     Column Row Layer    Maximum-Head-Change  Column Row Layer    Maximum-Flux-Residual          L2-NORM 
          0                 1           2             5    7     1       0.1915397288E+01       5    7    1         0.1032662237E+03      0.1809881305E+03
          0                 2           2             4    7     1       0.9557747549E+00       4    7    1         0.5094336933E+02      0.8603808103E+02
          0                 3           2             4    7     1       0.5658823396E+00       4    7    1         0.3046232805E+02      0.4507839312E+02
          0                 4           2             4    7     1       0.3332216647E+00       4    7    1         0.1801100571E+02      0.2562677362E+02
          0                 5           2             4    7     1       0.1790261976E+00       4    7    1         0.9686832945E+01      0.1321053514E+02
          0                 6           2             4    7     1       0.5181173654E-01       4    7    1         0.2784245997E+01      0.4282521660E+01
          0                 7           2             4    6     1       0.2532250346E-01       4    6    1         0.1360046392E+01      0.1721775710E+01
          0                 8           2             4    6     1       0.1489391783E-01       4    6    1         0.8063171000E+00      0.8645636490E+00
          0                 9           2             4    6     1       0.8715366431E-02       4    6    1         0.4736136391E+00      0.4831371616E+00
          0                10           2             4    6     1       0.5087356543E-02       4    6    1         0.2769626203E+00      0.2786918501E+00
                                                   Max.-Head-Change                         Max.-Flux-Residual
  Residual-Control   Outer-Iter.   Inner-Iter.     Column Row Layer    Maximum-Head-Change  Column Row Layer    Maximum-Flux-Residual          L2-NORM 
          0                11           2             4    6     1       0.2966064599E-02       4    6    1         0.1616190558E+00      0.1619951883E+00
          0                12           2             4    6     1       0.1728292501E-02       4    6    1         0.9421399821E-01      0.9431786699E-01
          0                13           2             4    6     1       0.1006772212E-02       4    6    1         0.5489340597E-01      0.5493017884E-01
          0                14           2             4    6     1       0.5863883453E-03       4    6    1         0.3197559288E-01      0.3199153455E-01
          0                15           2             4    6     1       0.3415153146E-03       4    6    1         0.1862366399E-01      0.1863156935E-01
          0                16           2             4    6     1       0.1988935597E-03       4    6    1         0.1084641639E-01      0.1085065275E-01
          0                17           2             4    6     1       0.1158308503E-03       4    6    1         0.6316769014E-02      0.6319134874E-02
          0                18           1             4    6     1       0.6745658161E-04       4    6    1         0.3678727626E-02      0.3680077006E-02

    ------------------------------------------------
       NWT REQUIRED           18 OUTER ITERATIONS 
       AND A TOTAL OF         35 INNER ITERATIONS.
    ------------------------------------------------

 NO OUTPUT CONTROL FOR STRESS PERIOD   34   TIME STEP    8
 
 SOLVING FOR HEAD 
                                                   Max.-Head-Change                         Max.-Flux-Residual
  Residual-Control   Outer-Iter.   Inner-Iter.     Column Row Layer    Maximum-Head-Change  Column Row Layer    Maximum-Flux-Residual          L2-NORM 
          0                 1           2             4    6     1       0.1878450016E+01       4    6    1         0.1025912747E+03      0.1037026449E+03
          0                 2           2             4    7     1      -0.1908034352E+01       5    7    1        -0.1007717815E+03      0.2355051473E+03
          0                 3           2             4    6     1      -0.4012414276E+00       4    6    1        -0.2274238110E+02      0.3098002413E+02
          0                 4           2             4    6     1      -0.1211432272E+00       4    6    1        -0.6774322705E+01      0.6937386383E+01
          0                 5           2             4    6     1      -0.3679608446E-01       4    6    1        -0.2064661464E+01      0.2065491603E+01
          0                 6           2             4    6     1      -0.1117606375E-01       4    6    1        -0.6267990757E+00      0.6268053799E+00
          0                 7           2             4    6     1      -0.3394415810E-02       4    6    1        -0.1903823979E+00      0.1903825917E+00
          0                 8           2             4    6     1      -0.1030935190E-02       4    6    1        -0.5782093903E-01      0.5782103526E-01
          0                 9           2             4    6     1      -0.3131037119E-03       4    6    1        -0.1756055984E-01      0.1756058737E-01
          0                10           1             4    6     1      -0.9509018969E-04       4    6    1        -0.5333124300E-02      0.5333132736E-02

    ------------------------------------------------
       NWT REQUIRED           10 OUTER ITERATIONS 
       AND A TOTAL OF         19 INNER ITERATIONS.
    ------------------------------------------------

 NO OUTPUT CONTROL FOR STRESS PERIOD   34   TIME STEP    9
 
 SOLVING FOR HEAD 
                                                   Max.-Head-Change                         Max.-Flux-Residual
  Residual-Control   Outer-Iter.   Inner-Iter.     Column Row Layer    Maximum-Head-Change  Column Row Layer    Maximum-Flux-Residual          L2-NORM 
          0                 1           2             5    6     1      -0.7114189497E-01       5    6    1        -0.4004055037E+01      0.9966833909E+01
          0                 2           2             5    8     1      -0.3655152950E-01       5    8    1        -0.2014431136E+01      0.4370388633E+01
          0                 3           2             4    7     1       0.9598378691E-02       4    7    1         0.5257654204E+00      0.1169843833E+01
          0                 4           2             4    6     1      -0.1176587606E-02       4    6    1        -0.6489396626E-01      0.9936992648E-01
          0                 5           2             4    6     1      -0.3573744055E-03       4    6    1        -0.2008752988E-01      0.2030436230E-01
          0                 6           2             4    6     1      -0.1085458640E-03       4    6    1        -0.6086856137E-02      0.6087146314E-02
          0                 7           1             4    6     1      -0.3296809021E-04       4    6    1        -0.1848792220E-02      0.1848835441E-02

    ------------------------------------------------
       NWT REQUIRED            7 OUTER ITERATIONS 
       AND A TOTAL OF         13 INNER ITERATIONS.
    ------------------------------------------------

 NO OUTPUT CONTROL FOR STRESS PERIOD   34   TIME STEP   10
 
 SOLVING FOR HEAD 
                                                   Max.-Head-Change                         Max.-Flux-Residual
  Residual-Control   Outer-Iter.   Inner-Iter.     Column Row Layer    Maximum-Head-Change  Column Row Layer    Maximum-Flux-Residual          L2-NORM 
          0                 1           2             5    6     1      -0.6502000846E-01       5    6    1        -0.3661835159E+01      0.9428725091E+01
          0                 2           2             5    6     1       0.6336738838E-02       5    6    1         0.3661394025E+00      0.9432564005E+00
          0                 3           2             5    6     1      -0.4280040280E-03       5    6    1        -0.2561414979E-01      0.6671372722E-01
          0                 4           1             4    6     1       0.5047723731E-04       4    6    1         0.2747862890E-02      0.3852652805E-02

    ------------------------------------------------
       NWT REQUIRED            4 OUTER ITERATIONS 
       AND A TOTAL OF          7 INNER ITERATIONS.
    ------------------------------------------------

 NO OUTPUT CONTROL FOR STRESS PERIOD   34   TIME STEP   11
 
 SOLVING FOR HEAD 
                                                   Max.-Head-Change                         Max.-Flux-Residual
  Residual-Control   Outer-Iter.   Inner-Iter.     Column Row Layer    Maximum-Head-Change  Column Row Layer    Maximum-Flux-Residual          L2-NORM 
          0                 1           2             6    7     1       0.6066519360E-01       5    6    1        -0.3378272313E+01      0.8993316314E+01
          0                 2           2             6    7     1      -0.5901039019E-02       5    6    1         0.3377895238E+00      0.8995619994E+00
          0                 3           2             6    7     1       0.4018409654E-03       5    6    1        -0.2363307042E-01      0.6341217574E-01
          0                 4           1             4    6     1       0.3955013331E-04       4    6    1         0.2152667425E-02      0.3356598309E-02

    ------------------------------------------------
       NWT REQUIRED            4 OUTER ITERATIONS 
       AND A TOTAL OF          7 INNER ITERATIONS.
    ------------------------------------------------

 NO OUTPUT CONTROL FOR STRESS PERIOD   34   TIME STEP   12
 
 SOLVING FOR HEAD 
                                                   Max.-Head-Change                         Max.-Flux-Residual
  Residual-Control   Outer-Iter.   Inner-Iter.     Column Row Layer    Maximum-Head-Change  Column Row Layer    Maximum-Flux-Residual          L2-NORM 
          0                 1           2             6    7     1       0.5794377954E-01       6    7    1         0.3152031073E+01      0.8587327114E+01
          0                 2           2             6    7     1      -0.5636325318E-02       6    7    1        -0.3152018134E+00      0.8588638201E+00
          0                 3           2             6    7     1       0.3838145029E-03       6    7    1         0.2206414869E-01      0.6039971718E-01
          0                 4           1             4    6     1       0.3065803906E-04       4    6    1         0.1668417772E-02      0.2971420738E-02

    ------------------------------------------------
       NWT REQUIRED            4 OUTER ITERATIONS 
       AND A TOTAL OF          7 INNER ITERATIONS.
    ------------------------------------------------

 NO OUTPUT CONTROL FOR STRESS PERIOD   34   TIME STEP   13
 
 SOLVING FOR HEAD 
                                                   Max.-Head-Change                         Max.-Flux-Residual
  Residual-Control   Outer-Iter.   Inner-Iter.     Column Row Layer    Maximum-Head-Change  Column Row Layer    Maximum-Flux-Residual          L2-NORM 
          0                 1           2             6    7     1       0.5536809847E-01       6    7    1         0.3010629612E+01      0.8208398022E+01
          0                 2           2             5    8     1      -0.1194769917E-01       5    8    1        -0.6597519731E+00      0.1330064771E+01
          0                 3           2             4    7     1       0.1015002688E-01       5    8    1         0.5524938012E+00      0.1271515952E+01
          0                 4           2             4    6     1       0.2351715716E-02       4    6    1         0.1361480746E+00      0.1409227673E+00
          0                 5           2             4    7     1      -0.9525021105E-03       5    8    1        -0.5390265256E-01      0.1197430830E+00
          0                 6           2             4    7     1       0.1314312173E-02       5    7    1         0.7468551667E-01      0.1806589171E+00
          0                 7           2             4    6     1       0.4162409781E-03       4    6    1         0.2538300816E-01      0.2550979199E-01
          0                 8           2             4    6     1       0.1493730192E-03       4    6    1         0.9098799094E-02      0.9098962385E-02
          0                 9           1             4    6     1       0.5360331244E-04       4    6    1         0.3264877052E-02      0.3264879858E-02

    ------------------------------------------------
       NWT REQUIRED            9 OUTER ITERATIONS 
       AND A TOTAL OF         17 INNER ITERATIONS.
    ------------------------------------------------

 NO OUTPUT CONTROL FOR STRESS PERIOD   34   TIME STEP   14
 
 SOLVING FOR HEAD 
                                                   Max.-Head-Change                         Max.-Flux-Residual
  Residual-Control   Outer-Iter.   Inner-Iter.     Column Row Layer    Maximum-Head-Change  Column Row Layer    Maximum-Flux-Residual          L2-NORM 
          0                 1           2             6    7     1       0.5293018016E-01       6    7    1         0.2876802850E+01      0.7855028278E+01
          0                 2           2             4    7     1      -0.1911726065E+01       5    8    1        -0.1001085753E+03      0.2447016761E+03
          0                 3           2             4    7     1       0.1855277758E+00       4    7    1         0.1002634454E+02      0.2178113322E+02
          0                 4           2             4    7     1      -0.1263455021E-01       4    7    1        -0.7042586973E+00      0.1441401892E+01
          0                 5           2             4    7     1       0.5027368695E-03       4    7    1         0.2889771942E-01      0.5751670075E-01
          0                 6           1             4    7     1      -0.6198968672E-05       4    7    1        -0.3673757794E-03      0.7354150459E-03

    ------------------------------------------------
       NWT REQUIRED            6 OUTER ITERATIONS 
       AND A TOTAL OF         11 INNER ITERATIONS.
    ------------------------------------------------

 NO OUTPUT CONTROL FOR STRESS PERIOD   34   TIME STEP   15
 
 SOLVING FOR HEAD 
                                                   Max.-Head-Change                         Max.-Flux-Residual
  Residual-Control   Outer-Iter.   Inner-Iter.     Column Row Layer    Maximum-Head-Change  Column Row Layer    Maximum-Flux-Residual          L2-NORM 
          0                 1           2             5    8     1       0.7166369115E-01       5    8    1         0.3934061651E+01      0.5270309346E+01
          0                 2           2             5    8     1      -0.4103481265E-01       5    8    1        -0.2268410267E+01      0.4828384980E+01
          0                 3           2             4    7     1       0.9916549517E-02       4    7    1         0.5345712969E+00      0.1221474439E+01
          0                 4           2             4    7     1      -0.6752824933E-03       4    7    1        -0.3805670149E-01      0.5870826110E-01
          0                 5           1             4    7     1       0.2687010175E-04       4    7    1         0.1581773853E-02      0.1679073437E-02

    ------------------------------------------------
       NWT REQUIRED            5 OUTER ITERATIONS 
       AND A TOTAL OF          9 INNER ITERATIONS.
    ------------------------------------------------

 NO OUTPUT CONTROL FOR STRESS PERIOD   34   TIME STEP   16
 
 SOLVING FOR HEAD 
                                                   Max.-Head-Change                         Max.-Flux-Residual
  Residual-Control   Outer-Iter.   Inner-Iter.     Column Row Layer    Maximum-Head-Change  Column Row Layer    Maximum-Flux-Residual          L2-NORM 
          0                 1           2             5    8     1       0.6872748076E-01       5    8    1         0.3768864366E+01      0.5080236745E+01
          0                 2           2             5    8     1      -0.6685371714E-02       5    8    1        -0.3768908050E+00      0.5079913711E+00
          0                 3           2             5    8     1       0.4552484238E-03       5    8    1         0.2638232641E-01      0.3555610664E-01
          0                 4           1             5    8     1      -0.1811476299E-04       5    8    1        -0.1079038847E-02      0.1454018964E-02

    ------------------------------------------------
       NWT REQUIRED            4 OUTER ITERATIONS 
       AND A TOTAL OF          7 INNER ITERATIONS.
    ------------------------------------------------

 NO OUTPUT CONTROL FOR STRESS PERIOD   34   TIME STEP   17
 
 SOLVING FOR HEAD 
                                                   Max.-Head-Change                         Max.-Flux-Residual
  Residual-Control   Outer-Iter.   Inner-Iter.     Column Row Layer    Maximum-Head-Change  Column Row Layer    Maximum-Flux-Residual          L2-NORM 
          0                 1           2             5    8     1       0.6519969295E-01       5    8    1         0.3571423405E+01      0.4888704604E+01
          0                 2           2             5    8     1      -0.6342215685E-02       5    8    1        -0.3571468097E+00      0.4888427667E+00
          0                 3           2             5    8     1       0.4318807576E-03       5    8    1         0.2500024530E-01      0.3421614918E-01
          0                 4           1             5    8     1      -0.1718494194E-04       5    8    1        -0.1022511655E-02      0.1399256859E-02

    ------------------------------------------------
       NWT REQUIRED            4 OUTER ITERATIONS 
       AND A TOTAL OF          7 INNER ITERATIONS.
    ------------------------------------------------

 NO OUTPUT CONTROL FOR STRESS PERIOD   34   TIME STEP   18
 
 SOLVING FOR HEAD 
                                                   Max.-Head-Change                         Max.-Flux-Residual
  Residual-Control   Outer-Iter.   Inner-Iter.     Column Row Layer    Maximum-Head-Change  Column Row Layer    Maximum-Flux-Residual          L2-NORM 
          0                 1           2             5    8     1       0.6192199717E-01       5    8    1         0.3388099261E+01      0.4714206077E+01
          0                 2           2             5    8     1      -0.6023386478E-02       5    8    1        -0.3388144627E+00      0.4713969840E+00
          0                 3           2             5    8     1       0.4101674359E-03       5    8    1         0.2371685403E-01      0.3299517695E-01
          0                 4           1             5    8     1      -0.1632200636E-04       5    8    1        -0.9700824107E-03      0.1349373175E-02

    ------------------------------------------------
       NWT REQUIRED            4 OUTER ITERATIONS 
       AND A TOTAL OF          7 INNER ITERATIONS.
    ------------------------------------------------

 NO OUTPUT CONTROL FOR STRESS PERIOD   34   TIME STEP   19
 
 SOLVING FOR HEAD 
                                                   Max.-Head-Change                         Max.-Flux-Residual
  Residual-Control   Outer-Iter.   Inner-Iter.     Column Row Layer    Maximum-Head-Change  Column Row Layer    Maximum-Flux-Residual          L2-NORM 
          0                 1           2             5    8     1       0.5887468249E-01       5    8    1         0.3217773204E+01      0.4554974210E+01
          0                 2           2             5    8     1      -0.1563337349E-01       5    8    1        -0.8670766935E+00      0.1584519372E+01
          0                 3           2             4    7     1       0.1036045262E-01       5    8    1         0.5673419446E+00      0.1359563272E+01
          0                 4           1             4    7     1      -0.3418164595E-03       4    7    1        -0.1960910460E-01      0.2037777235E-01
          0                 5           2             4    7     1      -0.9627222301E-03       5    7    1        -0.5389865047E-01      0.1317640524E+00
          0                 6           2             4    7     1       0.1315841284E-02       4    7    1         0.7472785741E-01      0.1806931179E+00
          0                 7           1             5    7     1       0.1826570977E-04       5    7    1         0.1108326181E-02      0.2900626325E-02

    ------------------------------------------------
       NWT REQUIRED            7 OUTER ITERATIONS 
       AND A TOTAL OF         12 INNER ITERATIONS.
    ------------------------------------------------

 NO OUTPUT CONTROL FOR STRESS PERIOD   34   TIME STEP   20
 
 SOLVING FOR HEAD 
                                                   Max.-Head-Change                         Max.-Flux-Residual
  Residual-Control   Outer-Iter.   Inner-Iter.     Column Row Layer    Maximum-Head-Change  Column Row Layer    Maximum-Flux-Residual          L2-NORM 
          0                 1           2             5    8     1       0.5603953549E-01       5    8    1         0.3059417303E+01      0.4410589377E+01
          0                 2           2             4    7     1      -0.1913567209E+01       5    8    1        -0.1003059461E+03      0.2451336664E+03
          0                 3           2             4    7     1       0.1856690172E+00       4    7    1         0.1009808451E+02      0.1855197243E+02
          0                 4           2             4    7     1      -0.1264428157E-01       4    7    1        -0.7160114833E+00      0.9543411217E+00
          0                 5           1             4    7     1       0.5031217716E-03       4    7    1         0.2964490956E-01      0.3061856553E-01
          0                 6           1             4    7     1      -0.6203720342E-05       4    7    1        -0.3801233620E-03      0.4014186745E-03

    ------------------------------------------------
       NWT REQUIRED            6 OUTER ITERATIONS 
       AND A TOTAL OF         10 INNER ITERATIONS.
    ------------------------------------------------

 NO OUTPUT CONTROL FOR STRESS PERIOD   34   TIME STEP   21
 
 SOLVING FOR HEAD 
                                                   Max.-Head-Change                         Max.-Flux-Residual
  Residual-Control   Outer-Iter.   Inner-Iter.     Column Row Layer    Maximum-Head-Change  Column Row Layer    Maximum-Flux-Residual          L2-NORM 
          0                 1           2             5    8     1       0.1069264820E+00       5    8    1         0.5860177683E+01      0.8060182322E+01
          0                 2           2             5    8     1      -0.4456176195E-01       5    8    1        -0.2467501646E+01      0.5276339637E+01
          0                 3           2             5    8     1       0.9258435502E-02       5    8    1         0.5248855194E+00      0.1230412420E+01
          0                 4           2             5    8     1      -0.3684023975E-03       5    8    1        -0.2146658247E-01      0.5040167889E-01
          0                 5           1             5    8     1       0.4542560377E-05       5    8    1         0.2719592219E-03      0.6536636306E-03

    ------------------------------------------------
       NWT REQUIRED            5 OUTER ITERATIONS 
       AND A TOTAL OF          9 INNER ITERATIONS.
    ------------------------------------------------

 NO OUTPUT CONTROL FOR STRESS PERIOD   34   TIME STEP   22
 
 SOLVING FOR HEAD 
                                                   Max.-Head-Change                         Max.-Flux-Residual
  Residual-Control   Outer-Iter.   Inner-Iter.     Column Row Layer    Maximum-Head-Change  Column Row Layer    Maximum-Flux-Residual          L2-NORM 
          0                 1           2             5    8     1       0.1020478184E+00       5    8    1         0.5596097755E+01      0.7781988081E+01
          0                 2           2             5    8     1      -0.9926668389E-02       5    8    1        -0.5596237146E+00      0.7781832790E+00
          0                 3           2             5    8     1       0.6759673769E-03       5    8    1         0.3917354504E-01      0.5447084005E-01
          0                 4           1             5    8     1      -0.2689738342E-04       5    8    1        -0.1602200832E-02      0.2227723656E-02

    ------------------------------------------------
       NWT REQUIRED            4 OUTER ITERATIONS 
       AND A TOTAL OF          7 INNER ITERATIONS.
    ------------------------------------------------

 NO OUTPUT CONTROL FOR STRESS PERIOD   34   TIME STEP   23
 
 SOLVING FOR HEAD 
                                                   Max.-Head-Change                         Max.-Flux-Residual
  Residual-Control   Outer-Iter.   Inner-Iter.     Column Row Layer    Maximum-Head-Change  Column Row Layer    Maximum-Flux-Residual          L2-NORM 
          0                 1           2             5    8     1       0.9680353842E-01       5    8    1         0.5302870673E+01      0.7446762629E+01
          0                 2           2             5    8     1      -0.9416530451E-02       5    8    1        -0.5303001191E+00      0.7446633195E+00
          0                 3           2             5    8     1       0.6412289991E-03       5    8    1         0.3712090097E-01      0.5212464567E-01
          0                 4           1             5    8     1      -0.2551511068E-04       5    8    1        -0.1518247552E-02      0.2131794531E-02

    ------------------------------------------------
       NWT REQUIRED            4 OUTER ITERATIONS 
       AND A TOTAL OF          7 INNER ITERATIONS.
    ------------------------------------------------

 NO OUTPUT CONTROL FOR STRESS PERIOD   34   TIME STEP   24
 
 SOLVING FOR HEAD 
                                                   Max.-Head-Change                         Max.-Flux-Residual
  Residual-Control   Outer-Iter.   Inner-Iter.     Column Row Layer    Maximum-Head-Change  Column Row Layer    Maximum-Flux-Residual          L2-NORM 
          0                 1           2             5    8     1       0.9192634871E-01       5    8    1         0.5030357139E+01      0.7140201746E+01
          0                 2           2             5    8     1      -0.8942101584E-02       5    8    1        -0.5030479521E+00      0.7140095680E+00
          0                 3           2             5    8     1       0.6089233778E-03       5    8    1         0.3521331922E-01      0.4997927196E-01
          0                 4           1             5    8     1      -0.2422963907E-04       5    8    1        -0.1440227312E-02      0.2044058142E-02

    ------------------------------------------------
       NWT REQUIRED            4 OUTER ITERATIONS 
       AND A TOTAL OF          7 INNER ITERATIONS.
    ------------------------------------------------

 NO OUTPUT CONTROL FOR STRESS PERIOD   34   TIME STEP   25
 
 SOLVING FOR HEAD 
                                                   Max.-Head-Change                         Max.-Flux-Residual
  Residual-Control   Outer-Iter.   Inner-Iter.     Column Row Layer    Maximum-Head-Change  Column Row Layer    Maximum-Flux-Residual          L2-NORM 
          0                 1           2             5    8     1       0.8738733321E-01       5    8    1         0.4776915353E+01      0.6859633299E+01
          0                 2           2             4    7     1      -0.1864231958E+01       5    8    1        -0.1004777029E+03      0.2455290800E+03
          0                 3           2             4    7     1       0.1269281377E+00       5    8    1         0.7031117383E+01      0.1718768109E+02
          0                 4           2             4    7     1      -0.5050680957E-02       5    8    1        -0.2874477222E+00      0.7033168277E+00
          0                 5           1             4    7     1       0.6227693712E-04       5    8    1         0.3633993279E-02      0.9010513435E-02

    ------------------------------------------------
       NWT REQUIRED            5 OUTER ITERATIONS 
       AND A TOTAL OF          9 INNER ITERATIONS.
    ------------------------------------------------

 NO OUTPUT CONTROL FOR STRESS PERIOD   34   TIME STEP   26
 
 SOLVING FOR HEAD 
                                                   Max.-Head-Change                         Max.-Flux-Residual
  Residual-Control   Outer-Iter.   Inner-Iter.     Column Row Layer    Maximum-Head-Change  Column Row Layer    Maximum-Flux-Residual          L2-NORM 
          0                 1           2             5    8     1       0.1365800639E+00       5    8    1         0.7486820644E+01      0.1222979072E+02
          0                 2           2             5    8     1      -0.4735021028E-01       5    8    1        -0.2623693575E+01      0.5671966603E+01
          0                 3           2             5    8     1       0.9448274253E-02       5    8    1         0.5358191624E+00      0.1257413113E+01
          0                 4           2             5    8     1      -0.3759562129E-03       5    8    1        -0.2191506904E-01      0.5150953123E-01
          0                 5           1             5    8     1       0.4635702281E-05       5    8    1         0.2777314164E-03      0.6674365619E-03

    ------------------------------------------------
       NWT REQUIRED            5 OUTER ITERATIONS 
       AND A TOTAL OF          9 INNER ITERATIONS.
    ------------------------------------------------

 NO OUTPUT CONTROL FOR STRESS PERIOD   34   TIME STEP   27
 
 SOLVING FOR HEAD 
                                                   Max.-Head-Change                         Max.-Flux-Residual
  Residual-Control   Outer-Iter.   Inner-Iter.     Column Row Layer    Maximum-Head-Change  Column Row Layer    Maximum-Flux-Residual          L2-NORM 
          0                 1           2             5    8     1       0.1304176753E+00       5    8    1         0.7142134661E+01      0.1178338214E+02
          0                 2           2             5    8     1      -0.1268623991E-01       5    8    1        -0.7142245143E+00      0.1178314190E+01
          0                 3           2             5    8     1       0.8638843772E-03       5    8    1         0.4999563304E-01      0.8248092888E-01
          0                 4           1             5    8     1      -0.3437477520E-04       5    8    1        -0.2044824728E-02      0.3373390709E-02

    ------------------------------------------------
       NWT REQUIRED            4 OUTER ITERATIONS 
       AND A TOTAL OF          7 INNER ITERATIONS.
    ------------------------------------------------

 NO OUTPUT CONTROL FOR STRESS PERIOD   34   TIME STEP   28
 
 SOLVING FOR HEAD 
                                                   Max.-Head-Change                         Max.-Flux-Residual
  Residual-Control   Outer-Iter.   Inner-Iter.     Column Row Layer    Maximum-Head-Change  Column Row Layer    Maximum-Flux-Residual          L2-NORM 
          0                 1           2             5    8     1       0.1238757133E+00       5    8    1         0.6777057210E+01      0.1128253665E+02
          0                 2           2             5    8     1      -0.1204987906E-01       5    8    1        -0.6777163062E+00      0.1128233273E+01
          0                 3           2             5    8     1       0.8205506267E-03       5    8    1         0.4744006185E-01      0.7897543264E-01
          0                 4           1             5    8     1      -0.3265048426E-04       5    8    1        -0.1940301706E-02      0.3230063172E-02

    ------------------------------------------------
       NWT REQUIRED            4 OUTER ITERATIONS 
       AND A TOTAL OF          7 INNER ITERATIONS.
    ------------------------------------------------

 NO OUTPUT CONTROL FOR STRESS PERIOD   34   TIME STEP   29
 
 SOLVING FOR HEAD 
                                                   Max.-Head-Change                         Max.-Flux-Residual
  Residual-Control   Outer-Iter.   Inner-Iter.     Column Row Layer    Maximum-Head-Change  Column Row Layer    Maximum-Flux-Residual          L2-NORM 
          0                 1           2             5    8     1       0.1177798996E+00       5    8    1         0.6437115755E+01      0.1081944307E+02
          0                 2           2             5    8     1       0.2861058781E-01       5    8    1         0.1585520429E+01      0.1808331751E+01
          0                 3           2             5    8     1       0.1190213481E-01       5    8    1         0.6564477594E+00      0.6592969845E+00
          0                 4           1             5    8     1       0.5259953240E-02       5    8    1         0.2903084280E+00      0.2903187243E+00
          0                 5           1             5    8     1       0.2324545691E-02       5    8    1         0.1282927584E+00      0.1282933805E+00
          0                 6           1             5    8     1       0.1027299521E-02       5    8    1         0.5669701675E-01      0.5669725024E-01
          0                 7           1             5    8     1       0.4539981952E-03       5    8    1         0.2505634942E-01      0.2505645201E-01
          0                 8           1             5    8     1       0.2006370656E-03       5    8    1         0.1107324118E-01      0.1107328662E-01
          0                 9           1             5    8     1       0.8866826522E-04       5    8    1         0.4893637943E-02      0.4893658084E-02

    ------------------------------------------------
       NWT REQUIRED            9 OUTER ITERATIONS 
       AND A TOTAL OF         12 INNER ITERATIONS.
    ------------------------------------------------

 NO OUTPUT CONTROL FOR STRESS PERIOD   34   TIME STEP   30



 STREAM LISTING     PERIOD     34   STEP       30

 LAYER ROW COL. STREAM  RCH.  FLOW INTO     FLOW TO   FLOW OUT OF   OVRLND.     DIRECT     STREAM       STREAM     STREAM     STREAM   STREAMBED  STREAMBED
                SEG.NO.  NO.  STRM. RCH.    AQUIFER    STRM. RCH.    RUNOFF     PRECIP       ET          HEAD       DEPTH      WIDTH   CONDCTNC.   GRADIENT

   1    1    1     1     1    1.7624E+01  2.0521E-01   1.7419E+01  0.000E+00  0.000E+00  0.000E+00  1.09411E+03  1.059E+00  1.124E+01  5.056E-02  1.353E+00
   1    2    2     1     2    1.7419E+01  3.1648E-01   1.7103E+01  0.000E+00  0.000E+00  0.000E+00  1.08911E+03  1.054E+00  1.115E+01  7.807E-02  1.351E+00
   1    3    3     1     3    1.7103E+01  2.6863E-01   1.6834E+01  0.000E+00  0.000E+00  0.000E+00  1.08347E+03  1.049E+00  1.106E+01  6.635E-02  1.350E+00
   1    3    4     1     4    1.6834E+01  2.4632E-01   1.6588E+01  0.000E+00  0.000E+00  0.000E+00  1.07845E+03  1.044E+00  1.097E+01  6.091E-02  1.348E+00
   1    4    5     2     1    1.4588E+01  3.0175E-01   1.4286E+01  0.000E+00  0.000E+00  0.000E+00  1.07280E+03  8.686E-01  1.200E+01  7.800E-02  1.290E+00
   1    5    6     2     2    1.4286E+01  2.3154E-01   1.4055E+01  0.000E+00  0.000E+00  0.000E+00  1.06737E+03  8.590E-01  1.200E+01  6.000E-02  1.286E+00
   1    6    6     2     3    1.4055E+01  2.3103E-01   1.3824E+01  0.000E+00  0.000E+00  0.000E+00  1.06264E+03  8.505E-01  1.200E+01  6.000E-02  1.284E+00
   1    7    6     2     4    1.3824E+01  2.3052E-01   1.3593E+01  0.000E+00  0.000E+00  0.000E+00  1.05792E+03  8.420E-01  1.200E+01  6.000E-02  1.281E+00
   1    8    6     2     5    1.3593E+01  2.3001E-01   1.3363E+01  0.000E+00  0.000E+00  0.000E+00  1.05319E+03  8.335E-01  1.200E+01  6.000E-02  1.278E+00
   1    3    5     3     1    2.0000E+00  2.8252E-01   1.7175E+00  0.000E+00  0.000E+00  0.000E+00  1.07555E+03  1.909E+00  9.636E+00  7.227E-02  1.955E+00
   1    3    6     3     2    1.7175E+00  2.4905E-01   1.4684E+00  0.000E+00  0.000E+00  0.000E+00  1.07264E+03  1.727E+00  8.909E+00  6.682E-02  1.864E+00
   1    3    7     3     3    1.4684E+00  1.9718E-01   1.2712E+00  0.000E+00  0.000E+00  0.000E+00  1.06987E+03  1.555E+00  8.218E+00  5.547E-02  1.777E+00
   1    4    8     3     4    1.2712E+00  2.2567E-01   1.0456E+00  0.000E+00  0.000E+00  0.000E+00  1.06682E+03  1.364E+00  7.455E+00  6.709E-02  1.682E+00
   1    5    8     3     5    1.0456E+00  1.5790E-01   8.8768E-01  0.000E+00  0.000E+00  0.000E+00  1.06362E+03  1.164E+00  6.655E+00  4.991E-02  1.582E+00
   1    6    8     3     6    8.8768E-01  5.5980E-02   8.3170E-01  0.000E+00  0.000E+00  0.000E+00  1.06158E+03  1.036E+00  6.145E+00  1.844E-02  1.518E+00
   1    5   10     4     1    1.0000E+01  9.0919E-02   9.9091E+00  0.000E+00  0.000E+00  0.000E+00  1.07836E+03  6.368E-01  1.000E+01  2.500E-02  1.212E+00
   1    5    9     4     2    9.9091E+00  1.8158E-01   9.7275E+00  0.000E+00  0.000E+00  0.000E+00  1.07154E+03  6.315E-01  1.000E+01  5.000E-02  1.211E+00
   1    6    8     4     3    9.7275E+00  1.2689E-01   9.6006E+00  0.000E+00  0.000E+00  0.000E+00  1.06381E+03  6.256E-01  1.000E+01  3.500E-02  1.209E+00
   1    6    8     5     1    1.0432E+01  2.2686E-01   1.0205E+01  0.000E+00  0.000E+00  0.000E+00  1.05868E+03  6.790E-01  1.542E+01  6.166E-02  1.226E+00
   1    7    7     5     2    1.0205E+01  2.7894E-01   9.9265E+00  0.000E+00  0.000E+00  0.000E+00  1.05417E+03  6.732E-01  1.519E+01  7.594E-02  1.224E+00
   1    8    7     5     3    9.9265E+00  1.9221E-01   9.7343E+00  0.000E+00  0.000E+00  0.000E+00  1.04992E+03  6.676E-01  1.497E+01  5.241E-02  1.223E+00
   1    8    6     5     4    9.7343E+00  1.3577E-01   9.5985E+00  0.000E+00  0.000E+00  0.000E+00  1.04691E+03  6.637E-01  1.482E+01  3.706E-02  1.221E+00
   1    9    6     6     1    2.2962E+01  2.4939E-01   2.2712E+01  0.000E+00  0.000E+00  0.000E+00  1.04388E+03  1.157E+00  1.200E+01  6.000E-02  1.386E+00
   1   10    7     6     2    2.2712E+01  2.4894E-01   2.2463E+01  0.000E+00  0.000E+00  0.000E+00  1.03933E+03  1.149E+00  1.200E+01  6.000E-02  1.383E+00
   1   11    7     6     3    2.2463E+01  2.4848E-01   2.2215E+01  0.000E+00  0.000E+00  0.000E+00  1.03478E+03  1.141E+00  1.200E+01  6.000E-02  1.380E+00
   1   12    7     6     4    2.2215E+01  2.4802E-01   2.1967E+01  0.000E+00  0.000E+00  0.000E+00  1.03022E+03  1.134E+00  1.200E+01  6.000E-02  1.378E+00
   1   13    7     6     5    2.1967E+01  1.6690E-02   2.1950E+01  0.000E+00  0.000E+00  0.000E+00  1.02704E+03  1.130E+00  1.200E+01  2.400E-02  2.318E-01
   1   14    9     7     1    1.5000E+02  1.4148E+00   1.4859E+02  0.000E+00  0.000E+00  0.000E+00  1.03987E+03  2.288E+00  5.529E+01  5.593E-01  8.432E-01
   1   13    8     7     2    1.4859E+02  2.0789E+00   1.4651E+02  0.000E+00  0.000E+00  0.000E+00  1.03478E+03  2.278E+00  5.525E+01  6.147E-01  1.127E+00
   1   13    7     7     3    1.4651E+02  1.8668E+00   1.4464E+02  0.000E+00  0.000E+00  0.000E+00  1.02969E+03  2.268E+00  5.520E+01  5.583E-01  1.115E+00
   1   13    6     8     1    1.6659E+02  1.2815E+00   1.6531E+02  0.000E+00  0.000E+00  0.000E+00  1.02480E+03  2.926E+00  4.242E+01  4.323E-01  9.882E-01
   1   13    5     8     2    1.6531E+02  5.0638E-01   1.6480E+02  0.000E+00  0.000E+00  0.000E+00  1.01854E+03  2.920E+00  4.234E+01  4.314E-01  3.913E-01
   1   13    4     8     3    1.6480E+02 -1.2503E+00   1.6605E+02  0.000E+00  0.000E+00  0.000E+00  1.01230E+03  2.922E+00  4.237E+01  4.318E+00 -9.652E-02
   1   13    3     8     4    1.6605E+02 -3.0312E+00   1.6908E+02  0.000E+00  0.000E+00  0.000E+00  1.00606E+03  2.936E+00  4.258E+01  4.339E+00 -2.329E-01
   1   13    2     8     5    1.6908E+02 -2.3347E+00   1.7142E+02  0.000E+00  0.000E+00  0.000E+00  9.99829E+02  2.954E+00  4.283E+01  4.365E+00 -1.783E-01
   1   13    1     8     6    1.7142E+02 -1.8770E+00   1.7329E+02  0.000E+00  0.000E+00  0.000E+00  9.94842E+02  2.967E+00  4.303E+01  2.631E+00 -2.378E-01
   1    8    6     9     1    2.1707E-06  0.0000E+00   2.1707E-06  0.000E+00  0.000E+00  0.000E+00  1.07875E+03  2.276E-04  4.000E+00  0.000E+00  1.000E+00
   1    8    5     9     2    2.1707E-06  0.0000E+00   2.1707E-06  0.000E+00  0.000E+00  0.000E+00  1.07825E+03  2.276E-04  4.000E+00  0.000E+00  1.000E+00





UNSATURATED ZONE PACKAGE VOLUMETRIC BUDGET FOR  TIME STEP    30 STRESS PERIOD   34
  ------------------------------------------------------------------------------



     CUMULATIVE VOLUMES      L**3       RATES FOR THIS TIME STEP      L**3/T
     ------------------                 ------------------------

           IN:                                      IN:
           ---                                      ---
        INFILTRATION =  9797654333.0314          INFILTRATION =           0.8475

          OUT:                                     OUT:
          ----                                     ----
              UZF ET =  1277691904.1394                UZF ET =          12.0675
        UZF RECHARGE =  7733397664.3318          UZF RECHARGE =           3.6799

            IN - OUT =   786564764.5602              IN - OUT =         -14.8999

          STORAGE:                                 STORAGE:
          --------                                 --------
      STORAGE CHANGE =   787586379.2821        STORAGE CHANGE =         -14.8999

 PERCENT DISCREPANCY IS DIFFERENCE BETWEEN IN-OUT MINUS CHANGE IN STORAGE
 DIVIDED BY THE AVERAGE OF IN AND OUT TIMES 100

 PERCENT DISCREPANCY =          -0.00     PERCENT DISCREPANCY =           0.00






1
  VOLUMETRIC BUDGET FOR AGRICULTURAL FIELDS AT  END OF TIME STEP   30, STRESS PERIOD  34
  ------------------------------------------------------------------------------

     CUMULATIVE VOLUMES      L**3       RATES FOR THIS TIME STEP      L**3/T
     ------------------                 ------------------------

           IN:                                      IN:
           ---                                      ---
               AG WELLS  =  9269336064.0000                 AG WELLS  =           0.0000
      DIVERSION SEGMENTS =   454717984.0000        DIVERSION SEGMENTS =       2.1707E-06
           GW IRRIGATION =           0.0000             GW IRRIGATION =           0.0000
           SW IRRIGATION =           0.0000             SW IRRIGATION =           0.0000
        SYSTEM LOSSES GW =           0.0000          SYSTEM LOSSES GW =           0.0000
        SYSTEM LOSSES SW =           0.0000          SYSTEM LOSSES SW =           0.0000

                TOTAL IN =  9724054528.0000                  TOTAL IN =       2.1707E-06

          OUT:                                     OUT:
          ----                                     ----
               AG WELLS  =           0.0000                 AG WELLS  =           0.0000
      DIVERSION SEGMENTS =           0.0000        DIVERSION SEGMENTS =           0.0000
           GW IRRIGATION =  9269336064.0000             GW IRRIGATION =           0.0000
           SW IRRIGATION =   454726304.0000             SW IRRIGATION =       2.1708E-06
        SYSTEM LOSSES GW =           0.0000          SYSTEM LOSSES GW =           0.0000
        SYSTEM LOSSES SW =           0.0000          SYSTEM LOSSES SW =           0.0000

               TOTAL OUT =  9724062720.0000                 TOTAL OUT =       2.1708E-06

                IN - OUT =       -8192.0000                  IN - OUT =      -4.3428E-11

     PERCENT DISCREPANCY =          -0.00         PERCENT DISCREPANCY =          -0.00



1
  VOLUMETRIC BUDGET FOR ENTIRE MODEL AT END OF TIME STEP   30, STRESS PERIOD  34
  ------------------------------------------------------------------------------

     CUMULATIVE VOLUMES      L**3       RATES FOR THIS TIME STEP      L**3/T
     ------------------                 ------------------------

           IN:                                      IN:
           ---                                      ---
             STORAGE     =  8001033728.0000               STORAGE     =          18.4831
       CONSTANT HEAD     =           0.0000         CONSTANT HEAD     =           0.0000
     HEAD DEP BOUNDS     =    25108300.0000       HEAD DEP BOUNDS     =           0.2911
      STREAM LEAKAGE     =  1065291840.0000        STREAM LEAKAGE     =          12.8230
        UZF RECHARGE     =  7733398016.0000          UZF RECHARGE     =           3.6799
               GW ET     =           0.0000                 GW ET     =           0.0000
     SURFACE LEAKAGE     =           0.0000       SURFACE LEAKAGE     =           0.0000
           AG WELLS      =           0.0000             AG WELLS      =           0.0000

                TOTAL IN = 16824832000.0000                  TOTAL IN =          35.2771

          OUT:                                     OUT:
          ----                                     ----
             STORAGE     =  6707105280.0000               STORAGE     =          26.4946
       CONSTANT HEAD     =           0.0000         CONSTANT HEAD     =           0.0000
     HEAD DEP BOUNDS     =    25006920.0000       HEAD DEP BOUNDS     =           0.2871
      STREAM LEAKAGE     =   823273536.0000        STREAM LEAKAGE     =           8.4932
        UZF RECHARGE     =           0.0000          UZF RECHARGE     =           0.0000
               GW ET     =           0.0000                 GW ET     =           0.0000
     SURFACE LEAKAGE     =           0.0000       SURFACE LEAKAGE     =           0.0000
           AG WELLS      =  9269336064.0000             AG WELLS      =           0.0000

               TOTAL OUT = 16824721408.0000                 TOTAL OUT =          35.2749

                IN - OUT =      110592.0000                  IN - OUT =       2.1820E-03

     PERCENT DISCREPANCY =           0.00         PERCENT DISCREPANCY =           0.01






         TIME SUMMARY AT END OF TIME STEP   30 IN STRESS PERIOD   34
                    SECONDS     MINUTES      HOURS       DAYS        YEARS
                    -----------------------------------------------------------
   TIME STEP LENGTH  87667.      1461.1      24.352      1.0147     2.77799E-03
 STRESS PERIOD TIME 2.63000E+06  43833.      730.56      30.440     8.33397E-02
         TOTAL TIME 8.68762E+07 1.44794E+06  24132.      1005.5      2.7529    
1
1
                            STRESS PERIOD NO.   35, LENGTH =   2630000.    
                            -----------------------------------------------

                              NUMBER OF TIME STEPS =    30

                               MULTIPLIER FOR DELT =     1.000

                            INITIAL TIME STEP SIZE =   87666.66    

 REUSING NON-PARAMETER GHB CELLS FROM LAST STRESS PERIOD

      2 GHB CELLS

 REUSING STREAM SEGMENT DATA FROM LAST STRESS PERIOD



            AREAL INFILTRATION RATE
 READING ON UNIT   19 WITH FORMAT: (FREE)              

            1           2           3           4           5           6           7           8           9          10
 ........................................................................................................................
   1   1.0000E-10  2.0000E-10   0.000       0.000       0.000       0.000       0.000       0.000       0.000       0.000    
   2   2.0000E-10  1.0000E-10  2.0000E-10   0.000       0.000      8.0000E-10  8.0000E-10  5.0000E-10   0.000       0.000    
   3    0.000      5.0000E-10  1.0000E-10  1.0000E-10  8.0000E-10  8.0000E-10  5.0000E-10  5.0000E-10   0.000       0.000    
   4   8.0000E-10  5.0000E-10  1.0000E-10  1.0000E-10  1.0000E-10  1.0000E-10  1.0000E-10  1.0000E-10  2.0000E-10   0.000    
   5   8.0000E-10  5.0000E-10  1.0000E-10  1.0000E-10  1.0000E-10  1.0000E-10  1.0000E-10  1.0000E-10  1.0000E-10  1.0000E-10
   6   8.0000E-10  5.0000E-10  5.0000E-10  2.0000E-10  2.0000E-10  1.0000E-10  1.0000E-10  1.0000E-10  1.0000E-10  5.0000E-10
   7   8.0000E-10  5.0000E-10  5.0000E-10  2.0000E-10  2.0000E-10  1.0000E-10  1.0000E-10  2.0000E-10  2.0000E-10   0.000    
   8    0.000      5.0000E-10  5.0000E-10  2.0000E-10  2.0000E-10  1.0000E-10  1.0000E-10  2.0000E-10  5.0000E-10   0.000    
   9    0.000      5.0000E-10  5.0000E-10  2.0000E-10  2.0000E-10  1.0000E-10  1.0000E-10  2.0000E-10  5.0000E-10   0.000    
  10    0.000      5.0000E-10  5.0000E-10  2.0000E-10  2.0000E-10  1.0000E-10  1.0000E-10  2.0000E-10  5.0000E-10  8.0000E-10
  11    0.000      1.0000E-10  1.0000E-10  1.0000E-10  1.0000E-10  1.0000E-10  1.0000E-10  2.0000E-10  5.0000E-10   0.000    
  12   1.0000E-10  1.0000E-10  1.0000E-10  1.0000E-10  1.0000E-10  1.0000E-10  1.0000E-10  1.0000E-10  2.0000E-10   0.000    
  13   1.0000E-10  1.0000E-10  2.0000E-10  2.0000E-10  2.0000E-10  2.0000E-10  2.0000E-10  1.0000E-10  1.0000E-10   0.000    
  14    0.000      2.0000E-10  5.0000E-10  5.0000E-10  5.0000E-10  5.0000E-10  5.0000E-10  2.0000E-10  1.0000E-10   0.000    
  15    0.000       0.000      8.0000E-10  8.0000E-10  8.0000E-10  8.0000E-10   0.000       0.000       0.000       0.000    

                  ET RATE =  5.000000E-09

 USING ET EXTINCTION DEPTH FROM PREVIOUS STRESS PERIOD. CURRENT PERIOD IS:      35

 USING EXTINCTION WATER CONTENT FROM PREVIOUS STRESS PERIOD. CURRENT PERIOD IS:      35

 USING AIR ENTRY PRESSURE FROM PREVIOUS STRESS PERIOD. CURRENT PERIOD IS:      35

 USING ROOT PRESSURE HEAD FROM PREVIOUS STRESS PERIOD. CURRENT PERIOD IS:      35

 USING ROOT ACTIVITY FROM PREVIOUS STRESS PERIOD. CURRENT PERIOD IS:      35

 PROCESSING AG STRESS PERIOD DATA

 READING AG STRESS PERIOD DATA

 READING IRRIGATION SEGMENT

 READING IRRIGATION WELL

 READING SUPPLEMENTAL WELL

 END PROCESSING AG STRESS PERIOD DATA OPTIONS
 
 SOLVING FOR HEAD 
                                                   Max.-Head-Change                         Max.-Flux-Residual
  Residual-Control   Outer-Iter.   Inner-Iter.     Column Row Layer    Maximum-Head-Change  Column Row Layer    Maximum-Flux-Residual          L2-NORM 
          0                 1           2             5    8     1       0.4711637261E+00       5    8    1         0.2593596801E+02      0.2727014135E+02
          0                 2           2             5    8     1       0.2082076691E+00       5    8    1         0.1149936728E+02      0.1153017667E+02
          0                 3           2             5    8     1       0.9215994011E-01       5    8    1         0.5083100418E+01      0.5083458864E+01
          0                 4           2             5    8     1       0.4075644312E-01       5    8    1         0.2248097063E+01      0.2248105562E+01
          0                 5           2             5    8     1       0.1802397091E-01       5    8    1         0.9941930769E+00      0.9941970809E+00
          0                 6           2             5    8     1       0.7970851959E-02       5    8    1         0.4396691389E+00      0.4396708873E+00
          0                 7           1             5    8     1       0.3524999302E-02       5    8    1         0.1944378545E+00      0.1944386268E+00
          0                 8           1             5    8     1       0.1558882349E-02       5    8    1         0.8598750325E-01      0.8598784463E-01
          0                 9           1             5    8     1       0.6893942378E-03       5    8    1         0.3802679769E-01      0.3802694858E-01
          0                10           1             5    8     1       0.3048751041E-03       5    8    1         0.1681682933E-01      0.1681689605E-01
                                                   Max.-Head-Change                         Max.-Flux-Residual
  Residual-Control   Outer-Iter.   Inner-Iter.     Column Row Layer    Maximum-Head-Change  Column Row Layer    Maximum-Flux-Residual          L2-NORM 
          0                11           1             5    8     1       0.1348268145E-03       5    8    1         0.7437011558E-02      0.7437041094E-02
          0                12           1             5    8     1       0.5962530158E-04       5    8    1         0.3288916043E-02      0.3288929089E-02

    ------------------------------------------------
       NWT REQUIRED           12 OUTER ITERATIONS 
       AND A TOTAL OF         18 INNER ITERATIONS.
    ------------------------------------------------

 NO OUTPUT CONTROL FOR STRESS PERIOD   35   TIME STEP    1
 
 SOLVING FOR HEAD 
                                                   Max.-Head-Change                         Max.-Flux-Residual
  Residual-Control   Outer-Iter.   Inner-Iter.     Column Row Layer    Maximum-Head-Change  Column Row Layer    Maximum-Flux-Residual          L2-NORM 
          0                 1           2             5    8     1       0.3749450717E+00       5    8    1         0.2057572797E+02      0.2230529085E+02
          0                 2           2             4    7     1      -0.1866223106E+01       5    6    1        -0.1004418571E+03      0.2421873281E+03
          0                 3           2             5    8     1      -0.3864834486E+00       5    8    1        -0.2212888356E+02      0.2713732345E+02
          0                 4           2             5    8     1       0.2630954780E-01       5    8    1         0.1542271863E+01      0.1674026457E+01
          0                 5           1             5    8     1      -0.1047183258E-02       5    8    1        -0.6283974678E-01      0.6349036274E-01
          0                 6           1             5    8     1       0.1292173278E-04       5    8    1         0.7924172644E-03      0.8062092004E-03

    ------------------------------------------------
       NWT REQUIRED            6 OUTER ITERATIONS 
       AND A TOTAL OF         10 INNER ITERATIONS.
    ------------------------------------------------

 NO OUTPUT CONTROL FOR STRESS PERIOD   35   TIME STEP    2
 
 SOLVING FOR HEAD 
                                                   Max.-Head-Change                         Max.-Flux-Residual
  Residual-Control   Outer-Iter.   Inner-Iter.     Column Row Layer    Maximum-Head-Change  Column Row Layer    Maximum-Flux-Residual          L2-NORM 
          0                 1           2             5    6     1       0.1290800152E+00       5    6    1         0.7022274177E+01      0.1451596941E+02
          0                 2           2             5    6     1      -0.1255585540E-01       5    6    1        -0.7022196388E+00      0.1451562485E+01
          0                 3           2             5    6     1       0.8550082827E-03       5    6    1         0.4915546954E-01      0.1016097370E+00
          0                 4           1             5    6     1      -0.3402151710E-04       5    6    1        -0.2010461162E-02      0.4155842987E-02

    ------------------------------------------------
       NWT REQUIRED            4 OUTER ITERATIONS 
       AND A TOTAL OF          7 INNER ITERATIONS.
    ------------------------------------------------

 NO OUTPUT CONTROL FOR STRESS PERIOD   35   TIME STEP    3
 
 SOLVING FOR HEAD 
                                                   Max.-Head-Change                         Max.-Flux-Residual
  Residual-Control   Outer-Iter.   Inner-Iter.     Column Row Layer    Maximum-Head-Change  Column Row Layer    Maximum-Flux-Residual          L2-NORM 
          0                 1           2             5    8     1       0.2152842206E+00       5    8    1         0.1176803177E+02      0.1736920554E+02
          0                 2           2             5    8     1       0.9801899510E-01       5    8    1         0.5417290786E+01      0.5565868159E+01
          0                 3           2             5    8     1       0.4462720041E-01       5    8    1         0.2460736273E+01      0.2462414545E+01
          0                 4           2             5    8     1       0.2031841004E-01       5    8    1         0.1120698154E+01      0.1120704845E+01
          0                 5           2             5    8     1       0.9250808703E-02       5    8    1         0.5102377190E+00      0.5102397644E+00
          0                 6           1             5    8     1       0.4211818629E-02       5    8    1         0.2323074166E+00      0.2323082878E+00
          0                 7           1             5    8     1       0.1917607026E-02       5    8    1         0.1057677824E+00      0.1057681795E+00
          0                 8           1             5    8     1       0.8730709923E-03       5    8    1         0.4815522823E-01      0.4815540900E-01
          0                 9           1             5    8     1       0.3975021701E-03       5    8    1         0.2192468976E-01      0.2192477202E-01
          0                10           1             5    8     1       0.1809795263E-03       5    8    1         0.9982134840E-02      0.9982172300E-02
          0                11           1             5    8     1       0.8239851610E-04       5    8    1         0.4544785547E-02      0.4544802615E-02

    ------------------------------------------------
       NWT REQUIRED           11 OUTER ITERATIONS 
       AND A TOTAL OF         16 INNER ITERATIONS.
    ------------------------------------------------

 NO OUTPUT CONTROL FOR STRESS PERIOD   35   TIME STEP    4
 
 SOLVING FOR HEAD 
                                                   Max.-Head-Change                         Max.-Flux-Residual
  Residual-Control   Outer-Iter.   Inner-Iter.     Column Row Layer    Maximum-Head-Change  Column Row Layer    Maximum-Flux-Residual          L2-NORM 
          0                 1           2             5    8     1       0.5134052554E+00       5    8    1         0.2819763056E+02      0.3083000659E+02
          0                 2           2             5    8     1       0.2270350646E+00       5    8    1         0.1253631851E+02      0.1259810107E+02
          0                 3           2             5    8     1       0.1003964128E+00       5    8    1         0.5537238853E+01      0.5537996140E+01
          0                 4           2             5    8     1       0.4439607520E-01       5    8    1         0.2448998726E+01      0.2449007095E+01
          0                 5           2             5    8     1       0.1963229476E-01       5    8    1         0.1082962523E+01      0.1082966987E+01
          0                 6           2             5    8     1       0.8681557038E-02       5    8    1         0.4788961753E+00      0.4788980824E+00
          0                 7           1             5    8     1       0.3839053897E-02       5    8    1         0.2117719893E+00      0.2117728334E+00
          0                 8           1             5    8     1       0.1697660364E-02       5    8    1         0.9364731971E-01      0.9364769270E-01
          0                 9           1             5    8     1       0.7507190116E-03       5    8    1         0.4141160580E-01      0.4141177065E-01
          0                10           1             5    8     1       0.3319739625E-03       5    8    1         0.1831254620E-01      0.1831261906E-01
                                                   Max.-Head-Change                         Max.-Flux-Residual
  Residual-Control   Outer-Iter.   Inner-Iter.     Column Row Layer    Maximum-Head-Change  Column Row Layer    Maximum-Flux-Residual          L2-NORM 
          0                11           1             5    8     1       0.1468015468E-03       5    8    1         0.8097955227E-02      0.8097987434E-02
          0                12           1             5    8     1       0.6491682077E-04       5    8    1         0.3580980850E-02      0.3580995085E-02

    ------------------------------------------------
       NWT REQUIRED           12 OUTER ITERATIONS 
       AND A TOTAL OF         18 INNER ITERATIONS.
    ------------------------------------------------

 NO OUTPUT CONTROL FOR STRESS PERIOD   35   TIME STEP    5
 
 SOLVING FOR HEAD 
                                                   Max.-Head-Change                         Max.-Flux-Residual
  Residual-Control   Outer-Iter.   Inner-Iter.     Column Row Layer    Maximum-Head-Change  Column Row Layer    Maximum-Flux-Residual          L2-NORM 
          0                 1           2             5    8     1       0.3898368399E+00       5    8    1         0.2125781099E+02      0.2668088286E+02
          0                 2           2             5    8     1       0.1742158570E+00       5    8    1         0.9534618303E+01      0.1113280459E+02
          0                 3           2             5    8     1       0.7791427492E-01       5    8    1         0.4257607296E+01      0.5039969716E+01
          0                 4           2             5    8     1       0.3487270891E-01       5    8    1         0.1904637214E+01      0.2299443137E+01
          0                 5           2             5    8     1       0.1562074111E-01       5    8    1         0.8525903439E+00      0.1051014059E+01
          0                 6           2             5    8     1       0.7002822128E-02       5    8    1         0.3819627394E+00      0.4812263118E+00
          0                 7           2             5    8     1       0.3142012327E-02       5    8    1         0.1712607551E+00      0.2207054893E+00
          0                 8           2             5    8     1       0.1410955733E-02       5    8    1         0.7685272131E-01      0.1013832792E+00
          0                 9           2             5    8     1       0.6341565822E-03       5    8    1         0.3451696275E-01      0.4664153578E-01
          0                10           2             5    8     1       0.2852749206E-03       5    8    1         0.1551617497E-01      0.2148793202E-01
                                                   Max.-Head-Change                         Max.-Flux-Residual
  Residual-Control   Outer-Iter.   Inner-Iter.     Column Row Layer    Maximum-Head-Change  Column Row Layer    Maximum-Flux-Residual          L2-NORM 
          0                11           2             4    8     1       0.1316508979E-03       4    8    1         0.7037487828E-02      0.9912713410E-02
          0                12           1             4    8     1       0.6222574699E-04       4    8    1         0.3328621783E-02      0.4578541014E-02

    ------------------------------------------------
       NWT REQUIRED           12 OUTER ITERATIONS 
       AND A TOTAL OF         23 INNER ITERATIONS.
    ------------------------------------------------

 NO OUTPUT CONTROL FOR STRESS PERIOD   35   TIME STEP    6
 
 SOLVING FOR HEAD 
                                                   Max.-Head-Change                         Max.-Flux-Residual
  Residual-Control   Outer-Iter.   Inner-Iter.     Column Row Layer    Maximum-Head-Change  Column Row Layer    Maximum-Flux-Residual          L2-NORM 
          0                 1           2             4    8     1       0.4842232709E+00       4    8    1         0.2599801058E+02      0.4137002754E+02
          0                 2           2             4    8     1       0.2211563160E+00       4    8    1         0.1188370920E+02      0.1857329397E+02
          0                 3           2             4    8     1       0.1009938132E+00       4    8    1         0.5426587872E+01      0.8435246940E+01
          0                 4           2             4    8     1       0.4611455242E-01       4    8    1         0.2478209434E+01      0.3834590826E+01
          0                 5           2             4    8     1       0.2105384974E-01       4    8    1         0.1131535530E+01      0.1743184796E+01
          0                 6           2             4    8     1       0.9611206397E-02       4    8    1         0.5166007386E+00      0.7924934415E+00
          0                 7           2             4    8     1       0.4387119986E-02       4    8    1         0.2358267611E+00      0.3603021828E+00
          0                 8           2             4    8     1       0.2002343363E-02       4    8    1         0.1076432911E+00      0.1638164610E+00
          0                 9           2             4    8     1       0.9138124965E-03       4    8    1         0.4912906422E-01      0.7448450247E-01
          0                10           2             4    8     1       0.4170009790E-03       4    8    1         0.2242073575E-01      0.3386810640E-01
                                                   Max.-Head-Change                         Max.-Flux-Residual
  Residual-Control   Outer-Iter.   Inner-Iter.     Column Row Layer    Maximum-Head-Change  Column Row Layer    Maximum-Flux-Residual          L2-NORM 
          0                11           2             4    8     1       0.1902743833E-03       4    8    1         0.1023111557E-01      0.1540037734E-01
          0                12           1             4    8     1       0.8681375861E-04       4    8    1         0.4668310170E-02      0.7003033581E-02

    ------------------------------------------------
       NWT REQUIRED           12 OUTER ITERATIONS 
       AND A TOTAL OF         23 INNER ITERATIONS.
    ------------------------------------------------

 NO OUTPUT CONTROL FOR STRESS PERIOD   35   TIME STEP    7
 
 SOLVING FOR HEAD 
                                                   Max.-Head-Change                         Max.-Flux-Residual
  Residual-Control   Outer-Iter.   Inner-Iter.     Column Row Layer    Maximum-Head-Change  Column Row Layer    Maximum-Flux-Residual          L2-NORM 
          0                 1           2             5    6     1       0.4697764000E+00       5    6    1         0.2522876498E+02      0.4974505473E+02
          0                 2           2             5    6     1       0.2150017460E+00       5    6    1         0.1152895022E+02      0.2247559674E+02
          0                 3           2             5    6     1       0.9836234757E-01       5    6    1         0.5277943325E+01      0.1018664361E+02
          0                 4           2             5    6     1       0.4498555359E-01       5    6    1         0.2414349023E+01      0.4623364221E+01
          0                 5           2             5    6     1       0.2056842695E-01       5    6    1         0.1104138399E+01      0.2101404211E+01
          0                 6           2             5    6     1       0.9402359958E-02       5    6    1         0.5048138040E+00      0.9563859072E+00
          0                 7           2             5    6     1       0.4297362516E-02       5    6    1         0.2307551581E+00      0.4358070423E+00
          0                 8           2             5    6     1       0.1963883962E-02       5    6    1         0.1054640807E+00      0.1988188077E+00
          0                 9           2             5    6     1       0.8974201972E-03       5    6    1         0.4819587162E-01      0.9080069256E-01
          0                10           2             5    6     1       0.4100697927E-03       5    6    1         0.2202339916E-01      0.4151042159E-01
                                                   Max.-Head-Change                         Max.-Flux-Residual
  Residual-Control   Outer-Iter.   Inner-Iter.     Column Row Layer    Maximum-Head-Change  Column Row Layer    Maximum-Flux-Residual          L2-NORM 
          0                11           2             5    6     1       0.1873767998E-03       5    6    1         0.1006337253E-01      0.1899462730E-01
          0                12           1             5    6     1       0.8562142962E-04       5    6    1         0.4598342784E-02      0.8699233521E-02

    ------------------------------------------------
       NWT REQUIRED           12 OUTER ITERATIONS 
       AND A TOTAL OF         23 INNER ITERATIONS.
    ------------------------------------------------

 NO OUTPUT CONTROL FOR STRESS PERIOD   35   TIME STEP    8
 
 SOLVING FOR HEAD 
                                                   Max.-Head-Change                         Max.-Flux-Residual
  Residual-Control   Outer-Iter.   Inner-Iter.     Column Row Layer    Maximum-Head-Change  Column Row Layer    Maximum-Flux-Residual          L2-NORM 
          0                 1           2             4    7     1       0.4640390673E+00       4    7    1         0.2438064378E+02      0.4961974680E+02
          0                 2           2             4    7     1       0.2107915183E+00       4    7    1         0.1107175432E+02      0.2244924829E+02
          0                 3           2             4    6     1       0.9618834491E-01       4    6    1         0.5106765046E+01      0.1017753971E+02
          0                 4           2             4    6     1       0.4454170204E-01       4    6    1         0.2366464282E+01      0.4616167540E+01
          0                 5           2             4    6     1       0.2060856975E-01       4    6    1         0.1095663675E+01      0.2094728761E+01
          0                 6           2             4    6     1       0.9527828089E-02       4    6    1         0.5068677709E+00      0.9509107171E+00
          0                 7           2             4    6     1       0.4401800615E-02       4    6    1         0.2343053407E+00      0.4318199556E+00
          0                 8           2             4    6     1       0.2032263603E-02       4    6    1         0.1082341698E+00      0.1961571037E+00
          0                 9           2             4    6     1       0.9376991530E-03       4    6    1         0.4996475325E-01      0.8913183338E-01
          0                10           2             4    6     1       0.4324137095E-03       4    6    1         0.2305156819E-01      0.4051158205E-01
                                                   Max.-Head-Change                         Max.-Flux-Residual
  Residual-Control   Outer-Iter.   Inner-Iter.     Column Row Layer    Maximum-Head-Change  Column Row Layer    Maximum-Flux-Residual          L2-NORM 
          0                11           2             4    6     1       0.1992988262E-03       4    6    1         0.1062901166E-01      0.1841764824E-01
          0                12           1             4    6     1       0.9181109406E-04       4    6    1         0.4898437656E-02      0.8375092589E-02

    ------------------------------------------------
       NWT REQUIRED           12 OUTER ITERATIONS 
       AND A TOTAL OF         23 INNER ITERATIONS.
    ------------------------------------------------

 NO OUTPUT CONTROL FOR STRESS PERIOD   35   TIME STEP    9
 
 SOLVING FOR HEAD 
                                                   Max.-Head-Change                         Max.-Flux-Residual
  Residual-Control   Outer-Iter.   Inner-Iter.     Column Row Layer    Maximum-Head-Change  Column Row Layer    Maximum-Flux-Residual          L2-NORM 
          0                 1           2             4    7     1       0.4032810942E+00       4    7    1         0.2115466521E+02      0.4441693110E+02
          0                 2           2             4    7     1       0.1833705870E+00       4    7    1         0.9625514682E+01      0.1983337239E+02
          0                 3           2             4    7     1       0.8327903210E-01       4    7    1         0.4376053962E+01      0.8829105952E+01
          0                 4           2             4    7     1       0.3777312141E-01       4    7    1         0.1986969463E+01      0.3925409442E+01
          0                 5           2             4    7     1       0.1711254893E-01       4    7    1         0.9010264157E+00      0.1746280563E+01
          0                 6           2             4    7     1       0.7744313371E-02       4    7    1         0.4081110269E+00      0.7772837698E+00
          0                 7           2             4    7     1       0.3501329067E-02       4    7    1         0.1846564351E+00      0.3461435542E+00
          0                 8           2             4    7     1       0.1581629463E-02       4    7    1         0.8347188846E-01      0.1542133618E+00
          0                 9           2             4    7     1       0.7138940494E-03       4    7    1         0.3770030200E-01      0.6873171521E-01
          0                10           2             4    7     1       0.3219966778E-03       4    7    1         0.1701425072E-01      0.3064391704E-01
                                                   Max.-Head-Change                         Max.-Flux-Residual
  Residual-Control   Outer-Iter.   Inner-Iter.     Column Row Layer    Maximum-Head-Change  Column Row Layer    Maximum-Flux-Residual          L2-NORM 
          0                11           2             4    7     1       0.1451394956E-03       4    7    1         0.7673172672E-02      0.1366682685E-01
          0                12           1             4    7     1       0.6538248238E-04       4    7    1         0.3458267955E-02      0.6096962464E-02

    ------------------------------------------------
       NWT REQUIRED           12 OUTER ITERATIONS 
       AND A TOTAL OF         23 INNER ITERATIONS.
    ------------------------------------------------

 NO OUTPUT CONTROL FOR STRESS PERIOD   35   TIME STEP   10
 
 SOLVING FOR HEAD 
                                                   Max.-Head-Change                         Max.-Flux-Residual
  Residual-Control   Outer-Iter.   Inner-Iter.     Column Row Layer    Maximum-Head-Change  Column Row Layer    Maximum-Flux-Residual          L2-NORM 
          0                 1           2             5    8     1       0.4060489453E+00       5    8    1         0.2189843135E+02      0.4378050271E+02
          0                 2           2             5    8     1       0.1868376814E+00       5    8    1         0.1010904392E+02      0.1946833754E+02
          0                 3           2             5    8     1       0.8138269666E-01       5    8    1         0.4399693698E+01      0.8543006846E+01
          0                 4           2             5    8     1       0.3546142891E-01       5    8    1         0.1916734467E+01      0.3751583564E+01
          0                 5           2             5    8     1       0.1545700650E-01       5    8    1         0.8352381346E+00      0.1647944171E+01
          0                 6           2             5    8     1       0.6739522505E-02       5    8    1         0.3640896718E+00      0.7241027405E+00
          0                 7           2             5    8     1       0.2931345071E-02       5    8    1         0.1584656996E+00      0.3181044906E+00
          0                 8           2             5    8     1       0.1277404307E-02       5    8    1         0.6904123630E-01      0.1398031843E+00
          0                 9           2             4    6     1       0.5588761813E-03       5    8    1         0.3008779693E-01      0.6145442826E-01
          0                10           2             4    6     1       0.2493591569E-03       4    6    1         0.1329329812E-01      0.2701932232E-01
                                                   Max.-Head-Change                         Max.-Flux-Residual
  Residual-Control   Outer-Iter.   Inner-Iter.     Column Row Layer    Maximum-Head-Change  Column Row Layer    Maximum-Flux-Residual          L2-NORM 
          0                11           2             4    6     1       0.1111937556E-03       4    6    1         0.5930517051E-02      0.1188151384E-01
          0                12           1             4    6     1       0.4955658519E-04       4    6    1         0.2644245258E-02      0.5225630236E-02

    ------------------------------------------------
       NWT REQUIRED           12 OUTER ITERATIONS 
       AND A TOTAL OF         23 INNER ITERATIONS.
    ------------------------------------------------

 NO OUTPUT CONTROL FOR STRESS PERIOD   35   TIME STEP   11
 
 SOLVING FOR HEAD 
                                                   Max.-Head-Change                         Max.-Flux-Residual
  Residual-Control   Outer-Iter.   Inner-Iter.     Column Row Layer    Maximum-Head-Change  Column Row Layer    Maximum-Flux-Residual          L2-NORM 
          0                 1           2             4    8     1       0.3996770375E+00       4    8    1         0.2127298895E+02      0.4106027611E+02
          0                 2           2             4    8     1       0.1903971806E+00       4    8    1         0.1016099159E+02      0.1873417021E+02
          0                 3           2             4    8     1       0.9067619486E-01       4    8    1         0.4843236281E+01      0.8599542690E+01
          0                 4           2             4    8     1       0.4313677335E-01       4    8    1         0.2306205621E+01      0.3961980339E+01
          0                 5           2             4    8     1       0.2050124208E-01       4    8    1         0.1096907094E+01      0.1830296200E+01
          0                 6           2             4    8     1       0.9735078942E-02       4    8    1         0.5212337758E+00      0.8475661899E+00
          0                 7           2             4    8     1       0.4619208598E-02       4    8    1         0.2474735193E+00      0.3932985837E+00
          0                 8           2             4    8     1       0.2190286464E-02       4    8    1         0.1174088168E+00      0.1828273162E+00
          0                 9           2             4    8     1       0.1037937641E-02       4    8    1         0.5566521834E-01      0.8511704801E-01
          0                10           2             4    8     1       0.4915937409E-03       4    8    1         0.2637603038E-01      0.3967803130E-01
                                                   Max.-Head-Change                         Max.-Flux-Residual
  Residual-Control   Outer-Iter.   Inner-Iter.     Column Row Layer    Maximum-Head-Change  Column Row Layer    Maximum-Flux-Residual          L2-NORM 
          0                11           2             4    8     1       0.2327182658E-03       4    8    1         0.1249120560E-01      0.1851639518E-01
          0                12           2             4    8     1       0.1101196926E-03       4    8    1         0.5912789671E-02      0.8648931337E-02
          0                13           1             4    8     1       0.5208692272E-04       4    8    1         0.2797657276E-02      0.4043021016E-02

    ------------------------------------------------
       NWT REQUIRED           13 OUTER ITERATIONS 
       AND A TOTAL OF         25 INNER ITERATIONS.
    ------------------------------------------------

 NO OUTPUT CONTROL FOR STRESS PERIOD   35   TIME STEP   12
 
 SOLVING FOR HEAD 
                                                   Max.-Head-Change                         Max.-Flux-Residual
  Residual-Control   Outer-Iter.   Inner-Iter.     Column Row Layer    Maximum-Head-Change  Column Row Layer    Maximum-Flux-Residual          L2-NORM 
          0                 1           2             4    7     1       0.4695361299E+00       4    7    1         0.2482286043E+02      0.4704020433E+02
          0                 2           2             4    7     1       0.2258870368E+00       4    7    1         0.1196736209E+02      0.2135803608E+02
          0                 3           2             4    7     1       0.1084104111E+00       4    7    1         0.5752762182E+01      0.9833516553E+01
          0                 4           2             4    7     1       0.5156479106E-01       4    7    1         0.2738383689E+01      0.4531987499E+01
          0                 5           2             4    7     1       0.2298450673E-01       4    7    1         0.1219444610E+01      0.2044097301E+01
          0                 6           2             4    7     1       0.1025701445E-01       4    7    1         0.5436735482E+00      0.9238155930E+00
          0                 7           2             4    7     1       0.4582529718E-02       4    7    1         0.2426701555E+00      0.4183330249E+00
          0                 8           2             4    7     1       0.2049665490E-02       4    7    1         0.1084405917E+00      0.1898003620E+00
          0                 9           2             4    7     1       0.9178020255E-03       4    7    1         0.4851316806E-01      0.8627627913E-01
          0                10           2             4    7     1       0.4114323120E-03       4    7    1         0.2172774620E-01      0.3929021444E-01
                                                   Max.-Head-Change                         Max.-Flux-Residual
  Residual-Control   Outer-Iter.   Inner-Iter.     Column Row Layer    Maximum-Head-Change  Column Row Layer    Maximum-Flux-Residual          L2-NORM 
          0                11           2             4    7     1       0.1846401913E-03       4    7    1         0.9742088774E-02      0.1792473097E-01
          0                12           1             4    6     1       0.8395316820E-04       4    6    1         0.4471642699E-02      0.8191632488E-02

    ------------------------------------------------
       NWT REQUIRED           12 OUTER ITERATIONS 
       AND A TOTAL OF         23 INNER ITERATIONS.
    ------------------------------------------------

 NO OUTPUT CONTROL FOR STRESS PERIOD   35   TIME STEP   13
 
 SOLVING FOR HEAD 
                                                   Max.-Head-Change                         Max.-Flux-Residual
  Residual-Control   Outer-Iter.   Inner-Iter.     Column Row Layer    Maximum-Head-Change  Column Row Layer    Maximum-Flux-Residual          L2-NORM 
          0                 1           2             4    6     1       0.4329558112E+00       4    6    1         0.2309939867E+02      0.4160384724E+02
          0                 2           2             4    6     1       0.1915023163E+00       4    6    1         0.1022787902E+02      0.1846252285E+02
          0                 3           2             4    6     1       0.8473911233E-01       4    6    1         0.4522958417E+01      0.8239993161E+01
          0                 4           2             4    6     1       0.3751240388E-01       4    6    1         0.2001625308E+01      0.3682480095E+01
          0                 5           2             4    6     1       0.1661281356E-01       4    6    1         0.8861480762E+00      0.1645832540E+01
          0                 6           2             4    6     1       0.7360070610E-02       4    6    1         0.3924712193E+00      0.7356744651E+00
          0                 7           2             4    6     1       0.3262005634E-02       4    6    1         0.1738913147E+00      0.3288765360E+00
          0                 8           2             4    6     1       0.1446255583E-02       4    6    1         0.7707449255E-01      0.1470359651E+00
          0                 9           2             4    6     1       0.6414412856E-03       4    6    1         0.3417431709E-01      0.6574367396E-01
          0                10           2             4    6     1       0.2845865780E-03       4    6    1         0.1515791256E-01      0.2939819600E-01
                                                   Max.-Head-Change                         Max.-Flux-Residual
  Residual-Control   Outer-Iter.   Inner-Iter.     Column Row Layer    Maximum-Head-Change  Column Row Layer    Maximum-Flux-Residual          L2-NORM 
          0                11           2             4    7     1       0.1264840261E-03       4    6    1         0.6725483354E-02      0.1314681697E-01
          0                12           1             4    7     1       0.5699303967E-04       4    7    1         0.2997815805E-02      0.5879643232E-02

    ------------------------------------------------
       NWT REQUIRED           12 OUTER ITERATIONS 
       AND A TOTAL OF         23 INNER ITERATIONS.
    ------------------------------------------------

 NO OUTPUT CONTROL FOR STRESS PERIOD   35   TIME STEP   14
 
 SOLVING FOR HEAD 
                                                   Max.-Head-Change                         Max.-Flux-Residual
  Residual-Control   Outer-Iter.   Inner-Iter.     Column Row Layer    Maximum-Head-Change  Column Row Layer    Maximum-Flux-Residual          L2-NORM 
          0                 1           2             4    7     1       0.3487784603E+00       4    7    1         0.1834471878E+02      0.3709740668E+02
          0                 2           2             4    7     1       0.1570433425E+00       4    7    1         0.8265751867E+01      0.1639067991E+02
          0                 3           2             4    7     1       0.7069264777E-01       4    7    1         0.3721280237E+01      0.7319921525E+01
          0                 4           2             4    7     1       0.3181405601E-01       4    7    1         0.1675070933E+01      0.3274396383E+01
          0                 5           2             4    7     1       0.1431392013E-01       4    7    1         0.7538043112E+00      0.1464699201E+01
          0                 6           2             4    7     1       0.6438688559E-02       4    7    1         0.3391404775E+00      0.6552257870E+00
          0                 7           2             4    7     1       0.2895608728E-02       4    7    1         0.1525458747E+00      0.2931253327E+00
          0                 8           2             4    7     1       0.1301937519E-02       4    7    1         0.6860023798E-01      0.1311397110E+00
          0                 9           2             4    7     1       0.5852645621E-03       4    7    1         0.3084319006E-01      0.5867214608E-01
          0                10           2             4    7     1       0.2630449608E-03       4    7    1         0.1386454045E-01      0.2625095743E-01
                                                   Max.-Head-Change                         Max.-Flux-Residual
  Residual-Control   Outer-Iter.   Inner-Iter.     Column Row Layer    Maximum-Head-Change  Column Row Layer    Maximum-Flux-Residual          L2-NORM 
          0                11           1             4    7     1       0.1182026236E-03       4    7    1         0.6231147401E-02      0.1174552668E-01
          0                12           1             4    7     1       0.5310643636E-04       4    7    1         0.2799952119E-02      0.5255484103E-02

    ------------------------------------------------
       NWT REQUIRED           12 OUTER ITERATIONS 
       AND A TOTAL OF         22 INNER ITERATIONS.
    ------------------------------------------------

 NO OUTPUT CONTROL FOR STRESS PERIOD   35   TIME STEP   15
 
 SOLVING FOR HEAD 
                                                   Max.-Head-Change                         Max.-Flux-Residual
  Residual-Control   Outer-Iter.   Inner-Iter.     Column Row Layer    Maximum-Head-Change  Column Row Layer    Maximum-Flux-Residual          L2-NORM 
          0                 1           2             4    7     1       0.3399222304E+00       4    7    1         0.1788461139E+02      0.3486965526E+02
          0                 2           2             4    7     1       0.1529588886E+00       4    7    1         0.8055299535E+01      0.1525817219E+02
          0                 3           2             4    7     1       0.6880055464E-01       4    7    1         0.3624048170E+01      0.6789124010E+01
          0                 4           2             4    7     1       0.3093426925E-01       4    7    1         0.1629999959E+01      0.3027411232E+01
          0                 5           2             4    7     1       0.1390357467E-01       4    7    1         0.7328334423E+00      0.1350052573E+01
          0                 6           2             4    7     1       0.6246828516E-02       4    7    1         0.3293542404E+00      0.6021164867E+00
          0                 7           2             4    7     1       0.2805735662E-02       4    7    1         0.1479683608E+00      0.2685654993E+00
          0                 8           2             4    7     1       0.1259781633E-02       4    7    1         0.6645532549E-01      0.1197994644E+00
          0                 9           2             4    7     1       0.5654733714E-03       4    7    1         0.2983687498E-01      0.5344290116E-01
          0                10           2             4    7     1       0.2537488814E-03       4    7    1         0.1339203227E-01      0.2384250946E-01
                                                   Max.-Head-Change                         Max.-Flux-Residual
  Residual-Control   Outer-Iter.   Inner-Iter.     Column Row Layer    Maximum-Head-Change  Column Row Layer    Maximum-Flux-Residual          L2-NORM 
          0                11           1             4    7     1       0.1138354802E-03       4    7    1         0.6009189972E-02      0.1063745058E-01
          0                12           1             4    7     1       0.5105506398E-04       4    7    1         0.2695678318E-02      0.4746179127E-02

    ------------------------------------------------
       NWT REQUIRED           12 OUTER ITERATIONS 
       AND A TOTAL OF         22 INNER ITERATIONS.
    ------------------------------------------------

 NO OUTPUT CONTROL FOR STRESS PERIOD   35   TIME STEP   16
 
 SOLVING FOR HEAD 
                                                   Max.-Head-Change                         Max.-Flux-Residual
  Residual-Control   Outer-Iter.   Inner-Iter.     Column Row Layer    Maximum-Head-Change  Column Row Layer    Maximum-Flux-Residual          L2-NORM 
          0                 1           2             4    7     1       0.3309129949E+00       4    7    1         0.1741997809E+02      0.3356478351E+02
          0                 2           2             4    7     1       0.1486714840E+00       4    7    1         0.7840867073E+01      0.1440246656E+02
          0                 3           2             4    7     1       0.6671221966E-01       4    7    1         0.3521335397E+01      0.6329282524E+01
          0                 4           2             4    7     1       0.2990323290E-01       4    7    1         0.1579793758E+01      0.2793555009E+01
          0                 5           2             4    7     1       0.1339139333E-01       4    7    1         0.7079959621E+00      0.1234710946E+01
          0                 6           2             4    7     1       0.5992107910E-02       4    7    1         0.3170055625E+00      0.5463893291E+00
          0                 7           2             4    7     1       0.2679316203E-02       4    7    1         0.1418266933E+00      0.2420274888E+00
          0                 8           2             4    7     1       0.1197283646E-02       4    7    1         0.6340847071E-01      0.1072932883E+00
          0                 9           2             4    7     1       0.5347268963E-03       4    7    1         0.2833166121E-01      0.4759483047E-01
          0                10           2             4    7     1       0.2387029223E-03       4    7    1         0.1265215660E-01      0.2112383245E-01
                                                   Max.-Head-Change                         Max.-Flux-Residual
  Residual-Control   Outer-Iter.   Inner-Iter.     Column Row Layer    Maximum-Head-Change  Column Row Layer    Maximum-Flux-Residual          L2-NORM 
          0                11           1             4    7     1       0.1065121824E-03       4    7    1         0.5647456765E-02      0.9379244131E-02
          0                12           1             4    7     1       0.4750929874E-04       4    7    1         0.2519773897E-02      0.4165910990E-02

    ------------------------------------------------
       NWT REQUIRED           12 OUTER ITERATIONS 
       AND A TOTAL OF         22 INNER ITERATIONS.
    ------------------------------------------------

 NO OUTPUT CONTROL FOR STRESS PERIOD   35   TIME STEP   17
 
 SOLVING FOR HEAD 
                                                   Max.-Head-Change                         Max.-Flux-Residual
  Residual-Control   Outer-Iter.   Inner-Iter.     Column Row Layer    Maximum-Head-Change  Column Row Layer    Maximum-Flux-Residual          L2-NORM 
          0                 1           2             4    7     1       0.3185362674E+00       4    7    1         0.1692860460E+02      0.2861522433E+02
          0                 2           2             4    7     1       0.1414978019E+00       4    7    1         0.7531566870E+01      0.1189063152E+02
          0                 3           2             4    7     1       0.6154272380E-01       4    7    1         0.3279219828E+01      0.5100054161E+01
          0                 4           2             4    7     1       0.2497219745E-01       4    7    1         0.1328596820E+01      0.2137521626E+01
          0                 5           2             4    6     1       0.1022291559E-01       4    6    1         0.5453286049E+00      0.8988550112E+00
          0                 6           2             4    6     1       0.4519097528E-02       4    6    1         0.2415079610E+00      0.3791897589E+00
          0                 7           2             4    6     1       0.1993682781E-02       4    6    1         0.1067158232E+00      0.1604349845E+00
          0                 8           2             4    6     1       0.8780048239E-03       4    6    1         0.4706264541E-01      0.6806323911E-01
          0                 9           2             4    6     1       0.3860706211E-03       4    6    1         0.2071951475E-01      0.2894634696E-01
          0                10           2             4    6     1       0.1695292223E-03       4    6    1         0.9108109160E-02      0.1233793748E-01
          0                11           1             4    6     1       0.7435297332E-04       4    6    1         0.3998516449E-02      0.5269431223E-02

    ------------------------------------------------
       NWT REQUIRED           11 OUTER ITERATIONS 
       AND A TOTAL OF         21 INNER ITERATIONS.
    ------------------------------------------------

 NO OUTPUT CONTROL FOR STRESS PERIOD   35   TIME STEP   18
 
 SOLVING FOR HEAD 
                                                   Max.-Head-Change                         Max.-Flux-Residual
  Residual-Control   Outer-Iter.   Inner-Iter.     Column Row Layer    Maximum-Head-Change  Column Row Layer    Maximum-Flux-Residual          L2-NORM 
          0                 1           2             4    6     1       0.2483805812E+00       4    6    1         0.1328142941E+02      0.2201306245E+02
          0                 2           2             4    6     1       0.1089799498E+00       4    6    1         0.5864625222E+01      0.8622102026E+01
          0                 3           2             4    6     1       0.4776994376E-01       4    6    1         0.2569625626E+01      0.3637126339E+01
          0                 4           2             4    6     1       0.2092104679E-01       4    6    1         0.1126355769E+01      0.1548323007E+01
          0                 5           2             4    6     1       0.9155175006E-02       4    6    1         0.4932075277E+00      0.6602268325E+00
          0                 6           2             4    6     1       0.4003456470E-02       4    6    1         0.2157998068E+00      0.2820051893E+00
          0                 7           2             4    6     1       0.1749509296E-02       4    6    1         0.9435440321E-01      0.1206391185E+00
          0                 8           2             4    6     1       0.7640728266E-03       4    6    1         0.4122786740E-01      0.5168136814E-01
          0                 9           2             4    6     1       0.3335130482E-03       4    6    1         0.1800368195E-01      0.2216880862E-01
          0                10           2             4    6     1       0.1455025256E-03       4    6    1         0.7857698794E-02      0.9520543929E-02
          0                11           1             4    6     1       0.6344920055E-04       4    6    1         0.3427777988E-02      0.4093161789E-02

    ------------------------------------------------
       NWT REQUIRED           11 OUTER ITERATIONS 
       AND A TOTAL OF         21 INNER ITERATIONS.
    ------------------------------------------------

 NO OUTPUT CONTROL FOR STRESS PERIOD   35   TIME STEP   19
 
 SOLVING FOR HEAD 
                                                   Max.-Head-Change                         Max.-Flux-Residual
  Residual-Control   Outer-Iter.   Inner-Iter.     Column Row Layer    Maximum-Head-Change  Column Row Layer    Maximum-Flux-Residual          L2-NORM 
          0                 1           2             4    7     1       0.1778475293E+00       4    7    1         0.9399602664E+01      0.1861925326E+02
          0                 2           2             4    7     1       0.7266470189E-01       4    7    1         0.3847088800E+01      0.6736814521E+01
          0                 3           2             4    7     1       0.2969129763E-01       4    7    1         0.1571227325E+01      0.2722313831E+01
          0                 4           2             4    7     1       0.1213284035E-01       4    7    1         0.6420650893E+00      0.1113066025E+01
          0                 5           2             4    7     1       0.4958162728E-02       4    7    1         0.2623707842E+00      0.4550544540E+00
          0                 6           2             4    7     1       0.2026291050E-02       4    7    1         0.1072208068E+00      0.1860483526E+00
          0                 7           2             4    7     1       0.8281397499E-03       4    7    1         0.4381921276E-01      0.7606586015E-01
          0                 8           2             4    7     1       0.3384732694E-03       4    7    1         0.1790896216E-01      0.3109973557E-01
          0                 9           1             4    7     1       0.1383446643E-03       4    7    1         0.7319726157E-02      0.1271528749E-01
          0                10           1             4    7     1       0.5654786678E-04       4    7    1         0.2991825181E-02      0.5198739865E-02

    ------------------------------------------------
       NWT REQUIRED           10 OUTER ITERATIONS 
       AND A TOTAL OF         18 INNER ITERATIONS.
    ------------------------------------------------

 NO OUTPUT CONTROL FOR STRESS PERIOD   35   TIME STEP   20
 
 SOLVING FOR HEAD 
                                                   Max.-Head-Change                         Max.-Flux-Residual
  Residual-Control   Outer-Iter.   Inner-Iter.     Column Row Layer    Maximum-Head-Change  Column Row Layer    Maximum-Flux-Residual          L2-NORM 
          0                 1           2             4    7     1       0.1719776074E+00       4    7    1         0.9092988466E+01      0.1815414399E+02
          0                 2           2             4    7     1       0.7022461097E-01       4    7    1         0.3719754388E+01      0.6492646901E+01
          0                 3           2             4    7     1       0.2867869168E-01       4    7    1         0.1518283717E+01      0.2620513808E+01
          0                 4           2             4    7     1       0.1171325570E-01       4    7    1         0.6201031860E+00      0.1071348868E+01
          0                 5           2             4    7     1       0.4784536002E-02       4    7    1         0.2532731226E+00      0.4379677470E+00
          0                 6           2             4    7     1       0.1954528937E-02       4    7    1         0.1034570965E+00      0.1790513252E+00
          0                 7           2             4    7     1       0.7985111412E-03       4    7    1         0.4226397634E-01      0.7320101161E-01
          0                 8           2             4    7     1       0.3262520763E-03       4    7    1         0.1726697787E-01      0.2992691619E-01
          0                 9           1             4    7     1       0.1333079729E-03       4    7    1         0.7054968895E-02      0.1223521095E-01
          0                10           1             4    7     1       0.5447369639E-04       4    7    1         0.2882729191E-02      0.5002246728E-02

    ------------------------------------------------
       NWT REQUIRED           10 OUTER ITERATIONS 
       AND A TOTAL OF         18 INNER ITERATIONS.
    ------------------------------------------------

 NO OUTPUT CONTROL FOR STRESS PERIOD   35   TIME STEP   21
 
 SOLVING FOR HEAD 
                                                   Max.-Head-Change                         Max.-Flux-Residual
  Residual-Control   Outer-Iter.   Inner-Iter.     Column Row Layer    Maximum-Head-Change  Column Row Layer    Maximum-Flux-Residual          L2-NORM 
          0                 1           2             4    7     1       0.1663200154E+00       4    7    1         0.8789487299E+01      0.1788448332E+02
          0                 2           2             4    7     1       0.6794502615E-01       4    7    1         0.3597824696E+01      0.6341587079E+01
          0                 3           2             4    7     1       0.2775955911E-01       4    7    1         0.1469119946E+01      0.2557369302E+01
          0                 4           2             4    7     1       0.1134241569E-01       4    7    1         0.6002793285E+00      0.1045521285E+01
          0                 5           2             4    7     1       0.4634819443E-02       4    7    1         0.2452737067E+00      0.4274059535E+00
          0                 6           2             4    7     1       0.1894048180E-02       4    7    1         0.1002271472E+00      0.1747320668E+00
          0                 7           2             4    7     1       0.7740645448E-03       4    7    1         0.4095902194E-01      0.7143452437E-01
          0                 8           2             4    7     1       0.3163651044E-03       4    7    1         0.1673944866E-01      0.2920441800E-01
          0                 9           1             4    7     1       0.1293072164E-03       4    7    1         0.6841595931E-02      0.1193969244E-01
          0                10           1             4    7     1       0.5285395602E-04       4    7    1         0.2796378807E-02      0.4881367352E-02

    ------------------------------------------------
       NWT REQUIRED           10 OUTER ITERATIONS 
       AND A TOTAL OF         18 INNER ITERATIONS.
    ------------------------------------------------

 NO OUTPUT CONTROL FOR STRESS PERIOD   35   TIME STEP   22
 
 SOLVING FOR HEAD 
                                                   Max.-Head-Change                         Max.-Flux-Residual
  Residual-Control   Outer-Iter.   Inner-Iter.     Column Row Layer    Maximum-Head-Change  Column Row Layer    Maximum-Flux-Residual          L2-NORM 
          0                 1           2             4    7     1       0.1609741838E+00       4    7    1         0.8502902719E+01      0.1762842263E+02
          0                 2           2             4    7     1       0.6578931146E-01       4    7    1         0.3482594451E+01      0.6196427684E+01
          0                 3           2             4    7     1       0.2688969343E-01       4    7    1         0.1422620246E+01      0.2496665757E+01
          0                 4           2             4    7     1       0.1099119006E-01       4    7    1         0.5815151733E+00      0.1020686197E+01
          0                 5           2             4    7     1       0.4492919453E-02       4    7    1         0.2376962744E+00      0.4172481620E+00
          0                 6           2             4    7     1       0.1836685394E-02       4    7    1         0.9716539633E-01      0.1705773518E+00
          0                 7           2             4    7     1       0.7508628488E-03       4    7    1         0.3972117356E-01      0.6973509153E-01
          0                 8           2             4    7     1       0.3069756338E-03       4    7    1         0.1623871758E-01      0.2850925964E-01
          0                 9           1             4    7     1       0.1255054554E-03       4    7    1         0.6638934325E-02      0.1165532607E-01
          0                10           1             4    7     1       0.5131388189E-04       4    7    1         0.2714313640E-02      0.4765038989E-02

    ------------------------------------------------
       NWT REQUIRED           10 OUTER ITERATIONS 
       AND A TOTAL OF         18 INNER ITERATIONS.
    ------------------------------------------------

 NO OUTPUT CONTROL FOR STRESS PERIOD   35   TIME STEP   23
 
 SOLVING FOR HEAD 
                                                   Max.-Head-Change                         Max.-Flux-Residual
  Residual-Control   Outer-Iter.   Inner-Iter.     Column Row Layer    Maximum-Head-Change  Column Row Layer    Maximum-Flux-Residual          L2-NORM 
          0                 1           2             4    7     1       0.1559012490E+00       4    7    1         0.8231975628E+01      0.1699734137E+02
          0                 2           2             4    7     1       0.6372569514E-01       4    7    1         0.3373143303E+01      0.5839147579E+01
          0                 3           2             4    7     1       0.2604545684E-01       4    7    1         0.1378021388E+01      0.2339020168E+01
          0                 4           2             4    7     1       0.1064388637E-01       4    7    1         0.5632507687E+00      0.9525252319E+00
          0                 5           2             4    7     1       0.4349287122E-02       4    7    1         0.2301744269E+00      0.3879509283E+00
          0                 6           2             4    7     1       0.1776990946E-02       4    7    1         0.9405145692E-01      0.1580341489E+00
          0                 7           2             4    7     1       0.7259420457E-03       4    7    1         0.3842578295E-01      0.6438201684E-01
          0                 8           2             4    7     1       0.2965302966E-03       4    7    1         0.1569746785E-01      0.2623078350E-01
          0                 9           1             4    7     1       0.1211121520E-03       4    7    1         0.6411904023E-02      0.1068769261E-01
          0                10           1             4    7     1       0.4946058957E-04       4    7    1         0.2618762903E-02      0.4354895165E-02

    ------------------------------------------------
       NWT REQUIRED           10 OUTER ITERATIONS 
       AND A TOTAL OF         18 INNER ITERATIONS.
    ------------------------------------------------

 NO OUTPUT CONTROL FOR STRESS PERIOD   35   TIME STEP   24
 
 SOLVING FOR HEAD 
                                                   Max.-Head-Change                         Max.-Flux-Residual
  Residual-Control   Outer-Iter.   Inner-Iter.     Column Row Layer    Maximum-Head-Change  Column Row Layer    Maximum-Flux-Residual          L2-NORM 
          0                 1           2             4    7     1       0.1510133476E+00       4    7    1         0.7972725521E+01      0.1653489814E+02
          0                 2           2             4    7     1       0.6172205343E-01       4    7    1         0.3267504210E+01      0.5592525505E+01
          0                 3           2             4    7     1       0.2522103112E-01       4    7    1         0.1334655456E+01      0.2237270555E+01
          0                 4           2             4    7     1       0.1030454016E-01       4    7    1         0.5453963167E+00      0.9119271629E+00
          0                 5           2             4    7     1       0.4209498194E-02       4    7    1         0.2228257736E+00      0.3715811317E+00
          0                 6           2             4    7     1       0.1719370529E-02       4    7    1         0.9102365054E-01      0.1514324332E+00
          0                 7           2             4    7     1       0.7021867355E-03       4    7    1         0.3717760545E-01      0.6171953084E-01
          0                 8           2             4    7     1       0.2867381393E-03       4    7    1         0.1518286819E-01      0.2515696017E-01
          0                 9           1             4    7     1       0.1170773771E-03       4    7    1         0.6199790235E-02      0.1025460400E-01
          0                10           1             4    7     1       0.4779907952E-04       4    7    1         0.2531370966E-02      0.4180227338E-02

    ------------------------------------------------
       NWT REQUIRED           10 OUTER ITERATIONS 
       AND A TOTAL OF         18 INNER ITERATIONS.
    ------------------------------------------------

 NO OUTPUT CONTROL FOR STRESS PERIOD   35   TIME STEP   25
 
 SOLVING FOR HEAD 
                                                   Max.-Head-Change                         Max.-Flux-Residual
  Residual-Control   Outer-Iter.   Inner-Iter.     Column Row Layer    Maximum-Head-Change  Column Row Layer    Maximum-Flux-Residual          L2-NORM 
          0                 1           2             4    7     1       0.1462851615E+00       4    7    1         0.7721986739E+01      0.1621862219E+02
          0                 2           2             4    7     1       0.5979118106E-01       4    7    1         0.3165173738E+01      0.5439772440E+01
          0                 3           2             4    7     1       0.2338138082E-01       4    7    1         0.1237865932E+01      0.2052586472E+01
          0                 4           2             4    7     1       0.1059827708E-01       4    7    1         0.5607482024E+00      0.9525491443E+00
          0                 5           2             4    7     1       0.4327136139E-02       4    7    1         0.2291970586E+00      0.3816321281E+00
          0                 6           2             4    7     1       0.1764592953E-02       4    7    1         0.9355295350E-01      0.1533540886E+00
          0                 7           2             4    7     1       0.7188680645E-03       4    7    1         0.3814191724E-01      0.6176100540E-01
          0                 8           2             4    7     1       0.2926061829E-03       4    7    1         0.1553544485E-01      0.2491698616E-01
          0                 9           1             4    7     1       0.1190161052E-03       4    7    1         0.6322481511E-02      0.1006634394E-01
          0                10           1             4    7     1       0.4837993416E-04       4    7    1         0.2571286201E-02      0.4071132904E-02

    ------------------------------------------------
       NWT REQUIRED           10 OUTER ITERATIONS 
       AND A TOTAL OF         18 INNER ITERATIONS.
    ------------------------------------------------

 NO OUTPUT CONTROL FOR STRESS PERIOD   35   TIME STEP   26
 
 SOLVING FOR HEAD 
                                                   Max.-Head-Change                         Max.-Flux-Residual
  Residual-Control   Outer-Iter.   Inner-Iter.     Column Row Layer    Maximum-Head-Change  Column Row Layer    Maximum-Flux-Residual          L2-NORM 
          0                 1           2             4    7     1       0.1400427867E+00       4    7    1         0.7479595846E+01      0.1446032384E+02
          0                 2           2             4    7     1       0.5638927362E-01       4    7    1         0.3021505348E+01      0.4452897068E+01
          0                 3           2             4    7     1       0.2269618962E-01       4    7    1         0.1215713793E+01      0.1739691539E+01
          0                 4           2             4    7     1       0.9160363652E-02       4    7    1         0.4903854624E+00      0.6992733352E+00
          0                 5           2             4    7     1       0.3689191297E-02       4    7    1         0.1975291799E+00      0.2813022027E+00
          0                 6           2             4    7     1       0.1485490398E-02       4    7    1         0.7954828744E-01      0.1132417069E+00
          0                 7           2             4    7     1       0.5980663422E-03       4    7    1         0.3202983064E-01      0.4561002812E-01
          0                 8           2             4    7     1       0.2407614680E-03       4    7    1         0.1289505574E-01      0.1837774247E-01
          0                 9           1             4    7     1       0.9691636755E-04       4    7    1         0.5191025799E-02      0.7407418542E-02

    ------------------------------------------------
       NWT REQUIRED            9 OUTER ITERATIONS 
       AND A TOTAL OF         17 INNER ITERATIONS.
    ------------------------------------------------

 NO OUTPUT CONTROL FOR STRESS PERIOD   35   TIME STEP   27
 
 SOLVING FOR HEAD 
                                                   Max.-Head-Change                         Max.-Flux-Residual
  Residual-Control   Outer-Iter.   Inner-Iter.     Column Row Layer    Maximum-Head-Change  Column Row Layer    Maximum-Flux-Residual          L2-NORM 
          0                 1           2             4    6     1       0.9699982919E-01       4    6    1         0.5090863598E+01      0.1274001832E+02
          0                 2           2             4    6     1       0.3926860833E-01       4    6    1         0.2101840890E+01      0.3344904233E+01
          0                 3           2             4    6     1       0.1585064796E-01       4    6    1         0.8469952461E+00      0.1218575004E+01
          0                 4           2             4    6     1       0.6382252110E-02       4    6    1         0.3419085090E+00      0.4676108669E+00
          0                 5           2             4    6     1       0.2564397788E-02       4    6    1         0.1375952985E+00      0.1804648593E+00
          0                 6           2             4    6     1       0.1028520813E-02       4    6    1         0.5526391826E-01      0.6995330194E-01
          0                 7           2             4    6     1       0.4118762171E-03       4    6    1         0.2215734997E-01      0.2721471345E-01
          0                 8           2             4    6     1       0.1647169329E-03       4    6    1         0.8870356093E-02      0.1062017788E-01
          0                 9           1             4    6     1       0.6579688800E-04       4    6    1         0.3546497993E-02      0.4155010622E-02

    ------------------------------------------------
       NWT REQUIRED            9 OUTER ITERATIONS 
       AND A TOTAL OF         17 INNER ITERATIONS.
    ------------------------------------------------

 NO OUTPUT CONTROL FOR STRESS PERIOD   35   TIME STEP   28
 
 SOLVING FOR HEAD 
                                                   Max.-Head-Change                         Max.-Flux-Residual
  Residual-Control   Outer-Iter.   Inner-Iter.     Column Row Layer    Maximum-Head-Change  Column Row Layer    Maximum-Flux-Residual          L2-NORM 
          0                 1           2             4    6     1       0.9219165099E-01       4    6    1         0.4922207296E+01      0.1126032057E+02
          0                 2           2             5    6     1      -0.1864772594E+01       5    6    1        -0.1000695343E+03      0.2432254752E+03
          0                 3           2             5    6     1       0.9627958681E-01       5    6    1         0.5510364347E+01      0.7911698058E+01
          0                 4           2             5    6     1      -0.6556613022E-02       5    6    1        -0.3866009784E+00      0.5258301381E+00
          0                 5           2             5    6     1       0.2608920008E-03       5    6    1         0.1584574205E-01      0.2100705480E-01
          0                 6           1             5    6     1      -0.3216914753E-05       5    6    1        -0.2012320797E-03      0.2751450518E-03

    ------------------------------------------------
       NWT REQUIRED            6 OUTER ITERATIONS 
       AND A TOTAL OF         11 INNER ITERATIONS.
    ------------------------------------------------

 NO OUTPUT CONTROL FOR STRESS PERIOD   35   TIME STEP   29
 
 SOLVING FOR HEAD 
                                                   Max.-Head-Change                         Max.-Flux-Residual
  Residual-Control   Outer-Iter.   Inner-Iter.     Column Row Layer    Maximum-Head-Change  Column Row Layer    Maximum-Flux-Residual          L2-NORM 
          0                 1           2             3    7     1       0.4826392458E-01       4    5    1         0.2295736921E+01      0.6739356131E+01
          0                 2           2             3    7     1      -0.4694744792E-02       4    5    1        -0.2295695300E+00      0.6739223633E+00
          0                 3           2             3    7     1       0.3196949013E-03       4    5    1         0.1606991341E-01      0.4717470772E-01
          0                 4           1             3    7     1      -0.1272096606E-04       4    5    1        -0.6572601881E-03      0.1929445983E-02

    ------------------------------------------------
       NWT REQUIRED            4 OUTER ITERATIONS 
       AND A TOTAL OF          7 INNER ITERATIONS.
    ------------------------------------------------

 NO OUTPUT CONTROL FOR STRESS PERIOD   35   TIME STEP   30



 STREAM LISTING     PERIOD     35   STEP       30

 LAYER ROW COL. STREAM  RCH.  FLOW INTO     FLOW TO   FLOW OUT OF   OVRLND.     DIRECT     STREAM       STREAM     STREAM     STREAM   STREAMBED  STREAMBED
                SEG.NO.  NO.  STRM. RCH.    AQUIFER    STRM. RCH.    RUNOFF     PRECIP       ET          HEAD       DEPTH      WIDTH   CONDCTNC.   GRADIENT

   1    1    1     1     1    1.3125E+01  1.7336E-01   1.2951E+01  0.000E+00  0.000E+00  0.000E+00  1.09402E+03  9.718E-01  9.699E+00  4.365E-02  1.324E+00
   1    2    2     1     2    1.2951E+01  2.6707E-01   1.2684E+01  0.000E+00  0.000E+00  0.000E+00  1.08903E+03  9.671E-01  9.617E+00  6.732E-02  1.322E+00
   1    3    3     1     3    1.2684E+01  2.2640E-01   1.2458E+01  0.000E+00  0.000E+00  0.000E+00  1.08338E+03  9.616E-01  9.525E+00  5.715E-02  1.321E+00
   1    3    4     1     4    1.2458E+01  2.0736E-01   1.2250E+01  0.000E+00  0.000E+00  0.000E+00  1.07836E+03  9.568E-01  9.443E+00  5.241E-02  1.319E+00
   1    4    5     2     1    1.0250E+01  2.8870E-01   9.9617E+00  0.000E+00  0.000E+00  0.000E+00  1.07264E+03  7.013E-01  1.200E+01  7.800E-02  1.234E+00
   1    5    6     2     2    9.9617E+00  2.2144E-01   9.7403E+00  0.000E+00  0.000E+00  0.000E+00  1.06720E+03  6.906E-01  1.200E+01  6.000E-02  1.230E+00
   1    6    6     2     3    9.7403E+00  2.2088E-01   9.5194E+00  0.000E+00  0.000E+00  0.000E+00  1.06247E+03  6.813E-01  1.200E+01  6.000E-02  1.227E+00
   1    7    6     2     4    9.5194E+00  2.2031E-01   9.2991E+00  0.000E+00  0.000E+00  0.000E+00  1.05775E+03  6.719E-01  1.200E+01  6.000E-02  1.224E+00
   1    8    6     2     5    9.2991E+00  2.1974E-01   9.0793E+00  0.000E+00  0.000E+00  0.000E+00  1.05302E+03  6.624E-01  1.200E+01  6.000E-02  1.221E+00
   1    3    5     3     1    2.0000E+00  2.8252E-01   1.7175E+00  0.000E+00  0.000E+00  0.000E+00  1.07555E+03  1.909E+00  9.636E+00  7.227E-02  1.955E+00
   1    3    6     3     2    1.7175E+00  2.4905E-01   1.4684E+00  0.000E+00  0.000E+00  0.000E+00  1.07264E+03  1.727E+00  8.909E+00  6.682E-02  1.864E+00
   1    3    7     3     3    1.4684E+00  1.9718E-01   1.2712E+00  0.000E+00  0.000E+00  0.000E+00  1.06987E+03  1.555E+00  8.218E+00  5.547E-02  1.777E+00
   1    4    8     3     4    1.2712E+00  2.2567E-01   1.0456E+00  0.000E+00  0.000E+00  0.000E+00  1.06682E+03  1.364E+00  7.455E+00  6.709E-02  1.682E+00
   1    5    8     3     5    1.0456E+00  1.5790E-01   8.8768E-01  0.000E+00  0.000E+00  0.000E+00  1.06362E+03  1.164E+00  6.655E+00  4.991E-02  1.582E+00
   1    6    8     3     6    8.8768E-01  5.5980E-02   8.3170E-01  0.000E+00  0.000E+00  0.000E+00  1.06158E+03  1.036E+00  6.145E+00  1.844E-02  1.518E+00
   1    5   10     4     1    1.0000E+01  9.0919E-02   9.9091E+00  0.000E+00  0.000E+00  0.000E+00  1.07836E+03  6.368E-01  1.000E+01  2.500E-02  1.212E+00
   1    5    9     4     2    9.9091E+00  1.8158E-01   9.7275E+00  0.000E+00  0.000E+00  0.000E+00  1.07154E+03  6.315E-01  1.000E+01  5.000E-02  1.211E+00
   1    6    8     4     3    9.7275E+00  1.2689E-01   9.6006E+00  0.000E+00  0.000E+00  0.000E+00  1.06381E+03  6.256E-01  1.000E+01  3.500E-02  1.209E+00
   1    6    8     5     1    1.0432E+01  2.2686E-01   1.0205E+01  0.000E+00  0.000E+00  0.000E+00  1.05868E+03  6.790E-01  1.542E+01  6.166E-02  1.226E+00
   1    7    7     5     2    1.0205E+01  2.7894E-01   9.9265E+00  0.000E+00  0.000E+00  0.000E+00  1.05417E+03  6.732E-01  1.519E+01  7.594E-02  1.224E+00
   1    8    7     5     3    9.9265E+00  1.9221E-01   9.7343E+00  0.000E+00  0.000E+00  0.000E+00  1.04992E+03  6.676E-01  1.497E+01  5.241E-02  1.223E+00
   1    8    6     5     4    9.7343E+00  1.3577E-01   9.5985E+00  0.000E+00  0.000E+00  0.000E+00  1.04691E+03  6.637E-01  1.482E+01  3.706E-02  1.221E+00
   1    9    6     6     1    1.8678E+01  2.4127E-01   1.8437E+01  0.000E+00  0.000E+00  0.000E+00  1.04375E+03  1.021E+00  1.200E+01  6.000E-02  1.340E+00
   1   10    7     6     2    1.8437E+01  2.4079E-01   1.8196E+01  0.000E+00  0.000E+00  0.000E+00  1.03919E+03  1.013E+00  1.200E+01  6.000E-02  1.338E+00
   1   11    7     6     3    1.8196E+01  2.4031E-01   1.7956E+01  0.000E+00  0.000E+00  0.000E+00  1.03464E+03  1.005E+00  1.200E+01  6.000E-02  1.335E+00
   1   12    7     6     4    1.7956E+01  2.3983E-01   1.7716E+01  0.000E+00  0.000E+00  0.000E+00  1.03009E+03  9.971E-01  1.200E+01  6.000E-02  1.332E+00
   1   13    7     6     5    1.7716E+01  1.3783E-02   1.7702E+01  0.000E+00  0.000E+00  0.000E+00  1.02690E+03  9.929E-01  1.200E+01  2.400E-02  1.914E-01
   1   14    9     7     1    1.5000E+02  1.4163E+00   1.4858E+02  0.000E+00  0.000E+00  0.000E+00  1.03987E+03  2.288E+00  5.529E+01  5.593E-01  8.441E-01
   1   13    8     7     2    1.4858E+02  2.0816E+00   1.4650E+02  0.000E+00  0.000E+00  0.000E+00  1.03478E+03  2.278E+00  5.525E+01  6.147E-01  1.129E+00
   1   13    7     7     3    1.4650E+02  1.8756E+00   1.4463E+02  0.000E+00  0.000E+00  0.000E+00  1.02969E+03  2.268E+00  5.520E+01  5.583E-01  1.120E+00
   1   13    6     8     1    1.6233E+02  1.2687E+00   1.6106E+02  0.000E+00  0.000E+00  0.000E+00  1.02477E+03  2.897E+00  4.201E+01  4.281E-01  9.878E-01
   1   13    5     8     2    1.6106E+02  5.0261E-01   1.6056E+02  0.000E+00  0.000E+00  0.000E+00  1.01852E+03  2.891E+00  4.192E+01  4.272E-01  3.922E-01
   1   13    4     8     3    1.6056E+02 -1.3011E+00   1.6186E+02  0.000E+00  0.000E+00  0.000E+00  1.01227E+03  2.894E+00  4.196E+01  4.276E+00 -1.014E-01
   1   13    3     8     4    1.6186E+02 -3.0954E+00   1.6495E+02  0.000E+00  0.000E+00  0.000E+00  1.00603E+03  2.909E+00  4.218E+01  4.298E+00 -2.401E-01
   1   13    2     8     5    1.6495E+02 -2.4270E+00   1.6738E+02  0.000E+00  0.000E+00  0.000E+00  9.99802E+02  2.927E+00  4.244E+01  4.325E+00 -1.871E-01
   1   13    1     8     6    1.6738E+02 -1.9362E+00   1.6932E+02  0.000E+00  0.000E+00  0.000E+00  9.94816E+02  2.941E+00  4.265E+01  2.608E+00 -2.475E-01
   1    8    6     9     1    0.0000E+00  0.0000E+00   0.0000E+00  0.000E+00  0.000E+00  0.000E+00  1.07875E+03  0.000E+00  4.000E+00  0.000E+00  1.000E+00
   1    8    5     9     2    0.0000E+00  0.0000E+00   0.0000E+00  0.000E+00  0.000E+00  0.000E+00  1.07825E+03  0.000E+00  4.000E+00  0.000E+00  1.000E+00





UNSATURATED ZONE PACKAGE VOLUMETRIC BUDGET FOR  TIME STEP    30 STRESS PERIOD   35
  ------------------------------------------------------------------------------



     CUMULATIVE VOLUMES      L**3       RATES FOR THIS TIME STEP      L**3/T
     ------------------                 ------------------------

           IN:                                      IN:
           ---                                      ---
        INFILTRATION =  9906858785.9000          INFILTRATION =           0.8475

          OUT:                                     OUT:
          ----                                     ----
              UZF ET =  1281814846.3420                UZF ET =           1.5675
        UZF RECHARGE =  8014180486.0818          UZF RECHARGE =       0.0000E+00

            IN - OUT =   610863453.4763              IN - OUT =          -0.7200

          STORAGE:                                 STORAGE:
          --------                                 --------
      STORAGE CHANGE =   611987326.1355        STORAGE CHANGE =          -0.2493

 PERCENT DISCREPANCY IS DIFFERENCE BETWEEN IN-OUT MINUS CHANGE IN STORAGE
 DIVIDED BY THE AVERAGE OF IN AND OUT TIMES 100

 PERCENT DISCREPANCY =          -0.00     PERCENT DISCREPANCY =         -30.03






1
  VOLUMETRIC BUDGET FOR AGRICULTURAL FIELDS AT  END OF TIME STEP   30, STRESS PERIOD  35
  ------------------------------------------------------------------------------

     CUMULATIVE VOLUMES      L**3       RATES FOR THIS TIME STEP      L**3/T
     ------------------                 ------------------------

           IN:                                      IN:
           ---                                      ---
               AG WELLS  =  9374535680.0000                 AG WELLS  =           0.0000
      DIVERSION SEGMENTS =   456493472.0000        DIVERSION SEGMENTS =           0.0000
           GW IRRIGATION =           0.0000             GW IRRIGATION =           0.0000
           SW IRRIGATION =           0.0000             SW IRRIGATION =           0.0000
        SYSTEM LOSSES GW =           0.0000          SYSTEM LOSSES GW =           0.0000
        SYSTEM LOSSES SW =           0.0000          SYSTEM LOSSES SW =           0.0000

                TOTAL IN =  9831028736.0000                  TOTAL IN =           0.0000

          OUT:                                     OUT:
          ----                                     ----
               AG WELLS  =           0.0000                 AG WELLS  =           0.0000
      DIVERSION SEGMENTS =           0.0000        DIVERSION SEGMENTS =           0.0000
           GW IRRIGATION =  9374535680.0000             GW IRRIGATION =           0.0000
           SW IRRIGATION =   456501856.0000             SW IRRIGATION =           0.0000
        SYSTEM LOSSES GW =           0.0000          SYSTEM LOSSES GW =           0.0000
        SYSTEM LOSSES SW =           0.0000          SYSTEM LOSSES SW =           0.0000

               TOTAL OUT =  9831037952.0000                 TOTAL OUT =           0.0000

                IN - OUT =       -9216.0000                  IN - OUT =           0.0000

     PERCENT DISCREPANCY =          -0.00         PERCENT DISCREPANCY =           0.00



1
  VOLUMETRIC BUDGET FOR ENTIRE MODEL AT END OF TIME STEP   30, STRESS PERIOD  35
  ------------------------------------------------------------------------------

     CUMULATIVE VOLUMES      L**3       RATES FOR THIS TIME STEP      L**3/T
     ------------------                 ------------------------

           IN:                                      IN:
           ---                                      ---
             STORAGE     =  8137172480.0000               STORAGE     =          15.9759
       CONSTANT HEAD     =           0.0000         CONSTANT HEAD     =           0.0000
     HEAD DEP BOUNDS     =    25874126.0000       HEAD DEP BOUNDS     =           0.2912
      STREAM LEAKAGE     =  1098295168.0000        STREAM LEAKAGE     =          12.5674
        UZF RECHARGE     =  8014180352.0000          UZF RECHARGE     =           0.0000
               GW ET     =           0.0000                 GW ET     =           0.0000
     SURFACE LEAKAGE     =           0.0000       SURFACE LEAKAGE     =           0.0000
           AG WELLS      =           0.0000             AG WELLS      =           0.0000

                TOTAL IN = 17275523072.0000                  TOTAL IN =          28.8346

          OUT:                                     OUT:
          ----                                     ----
             STORAGE     =  7028554752.0000               STORAGE     =          19.7876
       CONSTANT HEAD     =           0.0000         CONSTANT HEAD     =           0.0000
     HEAD DEP BOUNDS     =    25762322.0000       HEAD DEP BOUNDS     =           0.2872
      STREAM LEAKAGE     =   846547584.0000        STREAM LEAKAGE     =           8.7597
        UZF RECHARGE     =           0.0000          UZF RECHARGE     =           0.0000
               GW ET     =           0.0000                 GW ET     =           0.0000
     SURFACE LEAKAGE     =           0.0000       SURFACE LEAKAGE     =           0.0000
           AG WELLS      =  9374535680.0000             AG WELLS      =           0.0000

               TOTAL OUT = 17275400192.0000                 TOTAL OUT =          28.8346

                IN - OUT =      122880.0000                  IN - OUT =       1.7166E-05

     PERCENT DISCREPANCY =           0.00         PERCENT DISCREPANCY =           0.00






         TIME SUMMARY AT END OF TIME STEP   30 IN STRESS PERIOD   35
                    SECONDS     MINUTES      HOURS       DAYS        YEARS
                    -----------------------------------------------------------
   TIME STEP LENGTH  87667.      1461.1      24.352      1.0147     2.77799E-03
 STRESS PERIOD TIME 2.63000E+06  43833.      730.56      30.440     8.33397E-02
         TOTAL TIME 8.95061E+07 1.49177E+06  24863.      1036.0      2.8363    
1
1
                            STRESS PERIOD NO.   36, LENGTH =   2630000.    
                            -----------------------------------------------

                              NUMBER OF TIME STEPS =    30

                               MULTIPLIER FOR DELT =     1.000

                            INITIAL TIME STEP SIZE =   87666.66    

 REUSING NON-PARAMETER GHB CELLS FROM LAST STRESS PERIOD

      2 GHB CELLS

 REUSING STREAM SEGMENT DATA FROM LAST STRESS PERIOD



            AREAL INFILTRATION RATE
 READING ON UNIT   19 WITH FORMAT: (FREE)              

            1           2           3           4           5           6           7           8           9          10
 ........................................................................................................................
   1   1.0000E-10  2.0000E-10   0.000       0.000       0.000       0.000       0.000       0.000       0.000       0.000    
   2   2.0000E-10  1.0000E-10  2.0000E-10   0.000       0.000      8.0000E-10  8.0000E-10  5.0000E-10   0.000       0.000    
   3    0.000      5.0000E-10  1.0000E-10  1.0000E-10  8.0000E-10  8.0000E-10  5.0000E-10  5.0000E-10   0.000       0.000    
   4   8.0000E-10  5.0000E-10  1.0000E-10  1.0000E-10  1.0000E-10  1.0000E-10  1.0000E-10  1.0000E-10  2.0000E-10   0.000    
   5   8.0000E-10  5.0000E-10  1.0000E-10  1.0000E-10  1.0000E-10  1.0000E-10  1.0000E-10  1.0000E-10  1.0000E-10  1.0000E-10
   6   8.0000E-10  5.0000E-10  5.0000E-10  2.0000E-10  2.0000E-10  1.0000E-10  1.0000E-10  1.0000E-10  1.0000E-10  5.0000E-10
   7   8.0000E-10  5.0000E-10  5.0000E-10  2.0000E-10  2.0000E-10  1.0000E-10  1.0000E-10  2.0000E-10  2.0000E-10   0.000    
   8    0.000      5.0000E-10  5.0000E-10  2.0000E-10  2.0000E-10  1.0000E-10  1.0000E-10  2.0000E-10  5.0000E-10   0.000    
   9    0.000      5.0000E-10  5.0000E-10  2.0000E-10  2.0000E-10  1.0000E-10  1.0000E-10  2.0000E-10  5.0000E-10   0.000    
  10    0.000      5.0000E-10  5.0000E-10  2.0000E-10  2.0000E-10  1.0000E-10  1.0000E-10  2.0000E-10  5.0000E-10  8.0000E-10
  11    0.000      1.0000E-10  1.0000E-10  1.0000E-10  1.0000E-10  1.0000E-10  1.0000E-10  2.0000E-10  5.0000E-10   0.000    
  12   1.0000E-10  1.0000E-10  1.0000E-10  1.0000E-10  1.0000E-10  1.0000E-10  1.0000E-10  1.0000E-10  2.0000E-10   0.000    
  13   1.0000E-10  1.0000E-10  2.0000E-10  2.0000E-10  2.0000E-10  2.0000E-10  2.0000E-10  1.0000E-10  1.0000E-10   0.000    
  14    0.000      2.0000E-10  5.0000E-10  5.0000E-10  5.0000E-10  5.0000E-10  5.0000E-10  2.0000E-10  1.0000E-10   0.000    
  15    0.000       0.000      8.0000E-10  8.0000E-10  8.0000E-10  8.0000E-10   0.000       0.000       0.000       0.000    

                  ET RATE =  5.000000E-10

 USING ET EXTINCTION DEPTH FROM PREVIOUS STRESS PERIOD. CURRENT PERIOD IS:      36

 USING EXTINCTION WATER CONTENT FROM PREVIOUS STRESS PERIOD. CURRENT PERIOD IS:      36

 USING AIR ENTRY PRESSURE FROM PREVIOUS STRESS PERIOD. CURRENT PERIOD IS:      36

 USING ROOT PRESSURE HEAD FROM PREVIOUS STRESS PERIOD. CURRENT PERIOD IS:      36

 USING ROOT ACTIVITY FROM PREVIOUS STRESS PERIOD. CURRENT PERIOD IS:      36

 PROCESSING AG STRESS PERIOD DATA

 READING AG STRESS PERIOD DATA

 READING IRRIGATION SEGMENT

 READING IRRIGATION WELL

 READING SUPPLEMENTAL WELL

 END PROCESSING AG STRESS PERIOD DATA OPTIONS
 
 SOLVING FOR HEAD 
                                                   Max.-Head-Change                         Max.-Flux-Residual
  Residual-Control   Outer-Iter.   Inner-Iter.     Column Row Layer    Maximum-Head-Change  Column Row Layer    Maximum-Flux-Residual          L2-NORM 
          0                 1           2             3    7     1       0.4719598615E-01       4    5    1         0.2193511528E+01      0.6492707128E+01
          0                 2           2             3    7     1      -0.4590863706E-02       4    5    1        -0.2193473811E+00      0.6492587112E+00
          0                 3           2             3    7     1       0.3126209827E-03       4    5    1         0.1535435900E-01      0.4544824008E-01
          0                 4           1             3    7     1      -0.1243948748E-04       4    5    1        -0.6279939892E-03      0.1858834494E-02

    ------------------------------------------------
       NWT REQUIRED            4 OUTER ITERATIONS 
       AND A TOTAL OF          7 INNER ITERATIONS.
    ------------------------------------------------

 NO OUTPUT CONTROL FOR STRESS PERIOD   36   TIME STEP    1
 
 SOLVING FOR HEAD 
                                                   Max.-Head-Change                         Max.-Flux-Residual
  Residual-Control   Outer-Iter.   Inner-Iter.     Column Row Layer    Maximum-Head-Change  Column Row Layer    Maximum-Flux-Residual          L2-NORM 
          0                 1           2             3    7     1       0.4614902221E-01       4    5    1         0.2096366326E+01      0.6255790675E+01
          0                 2           2             3    7     1      -0.4489022949E-02       4    5    1        -0.2096332120E+00      0.6255615372E+00
          0                 3           2             3    7     1       0.3056860019E-03       4    5    1         0.1467436354E-01      0.4378884296E-01
          0                 4           1             3    7     1      -0.1216353699E-04       4    5    1        -0.6001821491E-03      0.1791179538E-02

    ------------------------------------------------
       NWT REQUIRED            4 OUTER ITERATIONS 
       AND A TOTAL OF          7 INNER ITERATIONS.
    ------------------------------------------------

 NO OUTPUT CONTROL FOR STRESS PERIOD   36   TIME STEP    2
 
 SOLVING FOR HEAD 
                                                   Max.-Head-Change                         Max.-Flux-Residual
  Residual-Control   Outer-Iter.   Inner-Iter.     Column Row Layer    Maximum-Head-Change  Column Row Layer    Maximum-Flux-Residual          L2-NORM 
          0                 1           2             3    7     1       0.4512374085E-01       4    5    1         0.2004055557E+01      0.6033854272E+01
          0                 2           2             3    7     1      -0.4389291387E-02       4    5    1        -0.2004024516E+00      0.6033684298E+00
          0                 3           2             3    7     1       0.2988946488E-03       4    5    1         0.1402820705E-01      0.4223531943E-01
          0                 4           1             3    7     1      -0.1189330223E-04       4    5    1        -0.5737543311E-03      0.1727384022E-02

    ------------------------------------------------
       NWT REQUIRED            4 OUTER ITERATIONS 
       AND A TOTAL OF          7 INNER ITERATIONS.
    ------------------------------------------------

 NO OUTPUT CONTROL FOR STRESS PERIOD   36   TIME STEP    3
 
 SOLVING FOR HEAD 
                                                   Max.-Head-Change                         Max.-Flux-Residual
  Residual-Control   Outer-Iter.   Inner-Iter.     Column Row Layer    Maximum-Head-Change  Column Row Layer    Maximum-Flux-Residual          L2-NORM 
          0                 1           2             3    7     1       0.4411957859E-01       4    5    1         0.1916318705E+01      0.5823204317E+01
          0                 2           2             3    7     1      -0.4291614196E-02       4    5    1        -0.1916290516E+00      0.5823757602E+00
          0                 3           2             3    7     1       0.2922431901E-03       4    5    1         0.1341406608E-01      0.4076581151E-01
          0                 4           1             3    7     1      -0.1162863378E-04       4    5    1        -0.5486359428E-03      0.1667304447E-02

    ------------------------------------------------
       NWT REQUIRED            4 OUTER ITERATIONS 
       AND A TOTAL OF          7 INNER ITERATIONS.
    ------------------------------------------------

 NO OUTPUT CONTROL FOR STRESS PERIOD   36   TIME STEP    4
 
 SOLVING FOR HEAD 
                                                   Max.-Head-Change                         Max.-Flux-Residual
  Residual-Control   Outer-Iter.   Inner-Iter.     Column Row Layer    Maximum-Head-Change  Column Row Layer    Maximum-Flux-Residual          L2-NORM 
          0                 1           2             3    7     1       0.4313666214E-01       4    5    1         0.1832938756E+01      0.5622977439E+01
          0                 2           2             3    7     1      -0.4196003693E-02       4    5    1        -0.1832913140E+00      0.5622834375E+00
          0                 3           2             3    7     1       0.2857324647E-03       4    5    1         0.1283042177E-01      0.3935936628E-01
          0                 4           1             3    7     1      -0.1136956582E-04       4    5    1        -0.5247648664E-03      0.1609767095E-02

    ------------------------------------------------
       NWT REQUIRED            4 OUTER ITERATIONS 
       AND A TOTAL OF          7 INNER ITERATIONS.
    ------------------------------------------------

 NO OUTPUT CONTROL FOR STRESS PERIOD   36   TIME STEP    5
 
 SOLVING FOR HEAD 
                                                   Max.-Head-Change                         Max.-Flux-Residual
  Residual-Control   Outer-Iter.   Inner-Iter.     Column Row Layer    Maximum-Head-Change  Column Row Layer    Maximum-Flux-Residual          L2-NORM 
          0                 1           2             3    7     1       0.4217507346E-01       4    5    1         0.1753680891E+01      0.5432576884E+01
          0                 2           2             3    7     1      -0.4102467839E-02       4    5    1        -0.1753657598E+00      0.5432464124E+00
          0                 3           2             3    7     1       0.2793630144E-03       4    5    1         0.1227563053E-01      0.3802679065E-01
          0                 4           1             3    7     1      -0.1111611817E-04       4    5    1        -0.5020738854E-03      0.1555284901E-02

    ------------------------------------------------
       NWT REQUIRED            4 OUTER ITERATIONS 
       AND A TOTAL OF          7 INNER ITERATIONS.
    ------------------------------------------------

 NO OUTPUT CONTROL FOR STRESS PERIOD   36   TIME STEP    6
 
 SOLVING FOR HEAD 
                                                   Max.-Head-Change                         Max.-Flux-Residual
  Residual-Control   Outer-Iter.   Inner-Iter.     Column Row Layer    Maximum-Head-Change  Column Row Layer    Maximum-Flux-Residual          L2-NORM 
          0                 1           2             3    7     1       0.4123794052E-01       4    5    1         0.1678358838E+01      0.5046835973E+01
          0                 2           2             3    7     1      -0.4012013188E-02       4    5    1        -0.1678364114E+00      0.5295090347E+00
          0                 3           2             4    6     1      -0.1076631262E-02       4    6    1        -0.5861133463E-01      0.6836140200E-01
          0                 4           2             4    6     1      -0.3794546869E-03       4    6    1        -0.2067065949E-01      0.2072037870E-01
          0                 5           2             4    6     1      -0.1337373825E-03       4    6    1        -0.7284369950E-02      0.7284531133E-02
          0                 6           1             4    6     1      -0.4713523792E-04       4    6    1        -0.2567358650E-02      0.2567408649E-02

    ------------------------------------------------
       NWT REQUIRED            6 OUTER ITERATIONS 
       AND A TOTAL OF         11 INNER ITERATIONS.
    ------------------------------------------------

 NO OUTPUT CONTROL FOR STRESS PERIOD   36   TIME STEP    7
 
 SOLVING FOR HEAD 
                                                   Max.-Head-Change                         Max.-Flux-Residual
  Residual-Control   Outer-Iter.   Inner-Iter.     Column Row Layer    Maximum-Head-Change  Column Row Layer    Maximum-Flux-Residual          L2-NORM 
          0                 1           2             4    6     1       0.5859963389E-01       4    6    1         0.3196894408E+01      0.6081524553E+01
          0                 2           2             4    6     1       0.2065263853E-01       4    6    1         0.1124623315E+01      0.1374072734E+01
          0                 3           2             4    6     1       0.7278779156E-02       4    6    1         0.3965360832E+00      0.4527381990E+00
          0                 4           2             4    6     1       0.2565324031E-02       4    6    1         0.1397356951E+00      0.1584708583E+00
          0                 5           2             4    6     1       0.9041201269E-03       4    6    1         0.4924702443E-01      0.5563401242E-01
          0                 6           2             4    6     1       0.3186471891E-03       4    6    1         0.1735668972E-01      0.1953465814E-01
          0                 7           2             4    6     1       0.1123036918E-03       4    6    1         0.6117169979E-02      0.6859811038E-02
          0                 8           1             4    6     1       0.3958019604E-04       4    6    1         0.2155929551E-02      0.2409140838E-02

    ------------------------------------------------
       NWT REQUIRED            8 OUTER ITERATIONS 
       AND A TOTAL OF         15 INNER ITERATIONS.
    ------------------------------------------------

 NO OUTPUT CONTROL FOR STRESS PERIOD   36   TIME STEP    8
 
 SOLVING FOR HEAD 
                                                   Max.-Head-Change                         Max.-Flux-Residual
  Residual-Control   Outer-Iter.   Inner-Iter.     Column Row Layer    Maximum-Head-Change  Column Row Layer    Maximum-Flux-Residual          L2-NORM 
          0                 1           2             5    8     1       0.7692221713E-01       5    8    1         0.4167805763E+01      0.7175549432E+01
          0                 2           2             5    8     1       0.2705751398E-01       5    8    1         0.1479134862E+01      0.2166000279E+01
          0                 3           2             5    8     1       0.9526738078E-02       5    8    1         0.5190577722E+00      0.7596113852E+00
          0                 4           2             5    8     1       0.3357544222E-02       5    8    1         0.1828764692E+00      0.2725144028E+00
          0                 5           2             5    8     1       0.1184458855E-02       5    8    1         0.6446242179E-01      0.9791420787E-01
          0                 6           2             5    8     1       0.4182524471E-03       5    8    1         0.2274576249E-01      0.3523156713E-01
          0                 7           2             5    8     1       0.1478347088E-03       5    8    1         0.8033623912E-02      0.1269350617E-01
          0                 8           1             5    8     1       0.5230369572E-04       5    8    1         0.2840154187E-02      0.4578968421E-02

    ------------------------------------------------
       NWT REQUIRED            8 OUTER ITERATIONS 
       AND A TOTAL OF         15 INNER ITERATIONS.
    ------------------------------------------------

 NO OUTPUT CONTROL FOR STRESS PERIOD   36   TIME STEP    9
 
 SOLVING FOR HEAD 
                                                   Max.-Head-Change                         Max.-Flux-Residual
  Residual-Control   Outer-Iter.   Inner-Iter.     Column Row Layer    Maximum-Head-Change  Column Row Layer    Maximum-Flux-Residual          L2-NORM 
          0                 1           2             5    8     1       0.7257440547E-01       5    8    1         0.3859443270E+01      0.9633430746E+01
          0                 2           2             5    8     1       0.2610171281E-01       5    8    1         0.1402819402E+01      0.3219827540E+01
          0                 3           2             5    8     1       0.9394219192E-02       5    8    1         0.5031401334E+00      0.1161918524E+01
          0                 4           2             4    8     1       0.3426901900E-02       5    8    1         0.1812012327E+00      0.4239360858E+00
          0                 5           2             4    7     1       0.1255592174E-02       4    8    1         0.6635056954E-01      0.1547053551E+00
          0                 6           2             4    7     1       0.4650989795E-03       4    7    1         0.2437063591E-01      0.5647358060E-01
          0                 7           2             4    7     1       0.1721946009E-03       4    7    1         0.9026405970E-02      0.2061992496E-01
          0                 8           1             4    7     1       0.6372051439E-04       4    7    1         0.3341504474E-02      0.7530495976E-02

    ------------------------------------------------
       NWT REQUIRED            8 OUTER ITERATIONS 
       AND A TOTAL OF         15 INNER ITERATIONS.
    ------------------------------------------------

 NO OUTPUT CONTROL FOR STRESS PERIOD   36   TIME STEP   10
 
 SOLVING FOR HEAD 
                                                   Max.-Head-Change                         Max.-Flux-Residual
  Residual-Control   Outer-Iter.   Inner-Iter.     Column Row Layer    Maximum-Head-Change  Column Row Layer    Maximum-Flux-Residual          L2-NORM 
          0                 1           2             5    8     1       0.6942533498E-01       5    8    1         0.3685964065E+01      0.9470332677E+01
          0                 2           2             5    8     1       0.2498897383E-01       5    8    1         0.1342552929E+01      0.3135540377E+01
          0                 3           2             4    8     1       0.9136993822E-02       4    8    1         0.4827431394E+00      0.1130610466E+01
          0                 4           2             4    7     1       0.3352471058E-02       4    8    1         0.1769137246E+00      0.4126422235E+00
          0                 5           2             4    7     1       0.1241847359E-02       4    7    1         0.6507051430E-01      0.1506275908E+00
          0                 6           2             4    7     1       0.4597758831E-03       4    7    1         0.2410121861E-01      0.5499964988E-01
          0                 7           2             4    7     1       0.1701404332E-03       4    7    1         0.8922147276E-02      0.2008658579E-01
          0                 8           1             4    7     1       0.6293043836E-04       4    7    1         0.3301300479E-02      0.7337317326E-02

    ------------------------------------------------
       NWT REQUIRED            8 OUTER ITERATIONS 
       AND A TOTAL OF         15 INNER ITERATIONS.
    ------------------------------------------------

 NO OUTPUT CONTROL FOR STRESS PERIOD   36   TIME STEP   11
 
 SOLVING FOR HEAD 
                                                   Max.-Head-Change                         Max.-Flux-Residual
  Residual-Control   Outer-Iter.   Inner-Iter.     Column Row Layer    Maximum-Head-Change  Column Row Layer    Maximum-Flux-Residual          L2-NORM 
          0                 1           2             5    8     1       0.6654620678E-01       5    8    1         0.3527575834E+01      0.9322386997E+01
          0                 2           2             4    8     1       0.2436995793E-01       4    8    1         0.1290559279E+01      0.3056526228E+01
          0                 3           2             4    7     1       0.8950192295E-02       4    8    1         0.4716691774E+00      0.1101141732E+01
          0                 4           2             4    7     1       0.3315525593E-02       4    7    1         0.1737255043E+00      0.4019932651E+00
          0                 5           2             4    7     1       0.1227564190E-02       4    7    1         0.6434661109E-01      0.1467769738E+00
          0                 6           2             4    7     1       0.4542728548E-03       4    7    1         0.2382156604E-01      0.5360593277E-01
          0                 7           2             4    7     1       0.1680269401E-03       4    7    1         0.8814477277E-02      0.1958164452E-01
          0                 8           1             4    7     1       0.6212111567E-04       4    7    1         0.3259975419E-02      0.7154216487E-02

    ------------------------------------------------
       NWT REQUIRED            8 OUTER ITERATIONS 
       AND A TOTAL OF         15 INNER ITERATIONS.
    ------------------------------------------------

 NO OUTPUT CONTROL FOR STRESS PERIOD   36   TIME STEP   12
 
 SOLVING FOR HEAD 
                                                   Max.-Head-Change                         Max.-Flux-Residual
  Residual-Control   Outer-Iter.   Inner-Iter.     Column Row Layer    Maximum-Head-Change  Column Row Layer    Maximum-Flux-Residual          L2-NORM 
          0                 1           2             4    8     1       0.6502083064E-01       5    7    1         0.3411791206E+01      0.9187319584E+01
          0                 2           2             4    7     1       0.2389130686E-01       4    8    1         0.1261493445E+01      0.2982143941E+01
          0                 3           2             4    7     1       0.8850902099E-02       4    7    1         0.4636638903E+00      0.1073332714E+01
          0                 4           2             4    7     1       0.3277205350E-02       4    7    1         0.1717808022E+00      0.3919288376E+00
          0                 5           2             4    7     1       0.1212823132E-02       4    7    1         0.6359658947E-01      0.1431329717E+00
          0                 6           2             4    7     1       0.4486194656E-03       4    7    1         0.2353323956E-01      0.5228541566E-01
          0                 7           2             4    7     1       0.1658649033E-03       4    7    1         0.8703968660E-02      0.1910269806E-01
          0                 8           1             4    7     1       0.6129644878E-04       4    7    1         0.3217737717E-02      0.6980367211E-02

    ------------------------------------------------
       NWT REQUIRED            8 OUTER ITERATIONS 
       AND A TOTAL OF         15 INNER ITERATIONS.
    ------------------------------------------------

 NO OUTPUT CONTROL FOR STRESS PERIOD   36   TIME STEP   13
 
 SOLVING FOR HEAD 
                                                   Max.-Head-Change                         Max.-Flux-Residual
  Residual-Control   Outer-Iter.   Inner-Iter.     Column Row Layer    Maximum-Head-Change  Column Row Layer    Maximum-Flux-Residual          L2-NORM 
          0                 1           2             4    7     1       0.6374915621E-01       4    8    1         0.3333777529E+01      0.8573164037E+01
          0                 2           2             4    7     1       0.2360573631E-01       4    7    1         0.1238392627E+01      0.2687898573E+01
          0                 3           2             4    7     1       0.8733392956E-02       4    7    1         0.4580130755E+00      0.9595726132E+00
          0                 4           2             4    7     1       0.3228435058E-02       4    7    1         0.1694495314E+00      0.3488341803E+00
          0                 5           2             4    7     1       0.1192518126E-02       4    7    1         0.6262765709E-01      0.1268737047E+00
          0                 6           2             4    7     1       0.4401711221E-03       4    7    1         0.2312966724E-01      0.4616506941E-01
          0                 7           2             4    7     1       0.1623606171E-03       4    7    1         0.8536096313E-02      0.1680298051E-01
          0                 8           1             4    7     1       0.5984949975E-04       4    7    1         0.3148153467E-02      0.6117472573E-02

    ------------------------------------------------
       NWT REQUIRED            8 OUTER ITERATIONS 
       AND A TOTAL OF         15 INNER ITERATIONS.
    ------------------------------------------------

 NO OUTPUT CONTROL FOR STRESS PERIOD   36   TIME STEP   14
 
 SOLVING FOR HEAD 
                                                   Max.-Head-Change                         Max.-Flux-Residual
  Residual-Control   Outer-Iter.   Inner-Iter.     Column Row Layer    Maximum-Head-Change  Column Row Layer    Maximum-Flux-Residual          L2-NORM 
          0                 1           2             4    7     1       0.6296378216E-01       4    7    1         0.3289916642E+01      0.8364307333E+01
          0                 2           2             4    7     1       0.2329297392E-01       4    7    1         0.1222907062E+01      0.2588429075E+01
          0                 3           2             4    7     1       0.8609845972E-02       4    7    1         0.4518531420E+00      0.9240887510E+00
          0                 4           2             4    7     1       0.3179993864E-02       4    7    1         0.1670203622E+00      0.3363865655E+00
          0                 5           2             4    7     1       0.1173658194E-02       4    7    1         0.6167662687E-01      0.1224880673E+00
          0                 6           2             4    7     1       0.4328760397E-03       4    7    1         0.2275992217E-01      0.4461361254E-01
          0                 7           2             4    7     1       0.1595557038E-03       4    7    1         0.8393266153E-02      0.1625249439E-01
          0                 8           1             4    7     1       0.5877690066E-04       4    7    1         0.3093302723E-02      0.5921715258E-02

    ------------------------------------------------
       NWT REQUIRED            8 OUTER ITERATIONS 
       AND A TOTAL OF         15 INNER ITERATIONS.
    ------------------------------------------------

 NO OUTPUT CONTROL FOR STRESS PERIOD   36   TIME STEP   15
 
 SOLVING FOR HEAD 
                                                   Max.-Head-Change                         Max.-Flux-Residual
  Residual-Control   Outer-Iter.   Inner-Iter.     Column Row Layer    Maximum-Head-Change  Column Row Layer    Maximum-Flux-Residual          L2-NORM 
          0                 1           2             4    7     1       0.6211887548E-01       4    7    1         0.3247629630E+01      0.8243632906E+01
          0                 2           2             4    7     1       0.2296257785E-01       4    7    1         0.1206310689E+01      0.2524888964E+01
          0                 3           2             4    7     1       0.8481758672E-02       4    7    1         0.4453696631E+00      0.9002429964E+00
          0                 4           2             4    7     1       0.3130698900E-02       4    7    1         0.1645116447E+00      0.3277365223E+00
          0                 5           2             4    7     1       0.1154799973E-02       4    7    1         0.6071250860E-01      0.1193530877E+00
          0                 6           2             4    7     1       0.4256974509E-03       4    7    1         0.2239152813E-01      0.4347739660E-01
          0                 7           2             4    7     1       0.1568345194E-03       4    7    1         0.8253172132E-02      0.1584058586E-01
          0                 8           1             4    7     1       0.5774905883E-04       4    7    1         0.3040242041E-02      0.5772334071E-02

    ------------------------------------------------
       NWT REQUIRED            8 OUTER ITERATIONS 
       AND A TOTAL OF         15 INNER ITERATIONS.
    ------------------------------------------------

 NO OUTPUT CONTROL FOR STRESS PERIOD   36   TIME STEP   16
 
 SOLVING FOR HEAD 
                                                   Max.-Head-Change                         Max.-Flux-Residual
  Residual-Control   Outer-Iter.   Inner-Iter.     Column Row Layer    Maximum-Head-Change  Column Row Layer    Maximum-Flux-Residual          L2-NORM 
          0                 1           2             4    7     1       0.6122978907E-01       4    7    1         0.3202677559E+01      0.8136036357E+01
          0                 2           2             4    7     1       0.2261922364E-01       4    7    1         0.1188891969E+01      0.2466253742E+01
          0                 3           2             4    7     1       0.8350054131E-02       4    7    1         0.4386490285E+00      0.8781079368E+00
          0                 4           2             4    7     1       0.3080459061E-02       4    7    1         0.1619374906E+00      0.3196813616E+00
          0                 5           2             4    7     1       0.1135723916E-02       4    7    1         0.5973164536E-01      0.1164267870E+00
          0                 6           2             4    7     1       0.4184824545E-03       4    7    1         0.2201943956E-01      0.4241483991E-01
          0                 7           2             4    7     1       0.1541147031E-03       4    7    1         0.8112550233E-02      0.1545480675E-01
          0                 8           1             4    7     1       0.5672671130E-04       4    7    1         0.2987267893E-02      0.5632258337E-02

    ------------------------------------------------
       NWT REQUIRED            8 OUTER ITERATIONS 
       AND A TOTAL OF         15 INNER ITERATIONS.
    ------------------------------------------------

 NO OUTPUT CONTROL FOR STRESS PERIOD   36   TIME STEP   17
 
 SOLVING FOR HEAD 
                                                   Max.-Head-Change                         Max.-Flux-Residual
  Residual-Control   Outer-Iter.   Inner-Iter.     Column Row Layer    Maximum-Head-Change  Column Row Layer    Maximum-Flux-Residual          L2-NORM 
          0                 1           2             4    7     1       0.6019376729E-01       4    7    1         0.3155704570E+01      0.7889901033E+01
          0                 2           2             4    7     1       0.2214387871E-01       4    7    1         0.1168052875E+01      0.2302167517E+01
          0                 3           2             4    7     1       0.8130677598E-02       4    7    1         0.4290169867E+00      0.8041344268E+00
          0                 4           2             4    7     1       0.2980644019E-02       4    7    1         0.1574935612E+00      0.2890485382E+00
          0                 5           2             4    7     1       0.1091232512E-02       4    7    1         0.5771585607E-01      0.1041828881E+00
          0                 6           2             4    7     1       0.3990632362E-03       4    7    1         0.2112442136E-01      0.3762560347E-01
          0                 7           2             4    7     1       0.1458010307E-03       4    7    1         0.7723419206E-02      0.1360776363E-01
          0                 8           1             4    7     1       0.5322773497E-04       4    7    1         0.2821270785E-02      0.4926674155E-02

    ------------------------------------------------
       NWT REQUIRED            8 OUTER ITERATIONS 
       AND A TOTAL OF         15 INNER ITERATIONS.
    ------------------------------------------------

 NO OUTPUT CONTROL FOR STRESS PERIOD   36   TIME STEP   18
 
 SOLVING FOR HEAD 
                                                   Max.-Head-Change                         Max.-Flux-Residual
  Residual-Control   Outer-Iter.   Inner-Iter.     Column Row Layer    Maximum-Head-Change  Column Row Layer    Maximum-Flux-Residual          L2-NORM 
          0                 1           2             4    7     1       0.5831557972E-01       4    7    1         0.3093664841E+01      0.7244581309E+01
          0                 2           2             4    7     1       0.2114492637E-01       4    7    1         0.1127958874E+01      0.1980820992E+01
          0                 3           2             4    7     1       0.7658897582E-02       4    7    1         0.4084044191E+00      0.6801608046E+00
          0                 4           2             4    7     1       0.2771737225E-02       4    7    1         0.1479265662E+00      0.2424790248E+00
          0                 5           2             4    7     1       0.1002385277E-02       4    7    1         0.5352354502E-01      0.8672726058E-01
          0                 6           2             4    7     1       0.3623036897E-03       4    7    1         0.1935380023E-01      0.3108832821E-01
          0                 7           2             4    7     1       0.1308924555E-03       4    7    1         0.6994454821E-02      0.1116174788E-01
          0                 8           1             4    7     1       0.4727158095E-04       4    7    1         0.2526709941E-02      0.4012335312E-02

    ------------------------------------------------
       NWT REQUIRED            8 OUTER ITERATIONS 
       AND A TOTAL OF         15 INNER ITERATIONS.
    ------------------------------------------------

 NO OUTPUT CONTROL FOR STRESS PERIOD   36   TIME STEP   19
 
 SOLVING FOR HEAD 
                                                   Max.-Head-Change                         Max.-Flux-Residual
  Residual-Control   Outer-Iter.   Inner-Iter.     Column Row Layer    Maximum-Head-Change  Column Row Layer    Maximum-Flux-Residual          L2-NORM 
          0                 1           2             4    7     1       0.5559716865E-01       4    7    1         0.2973140099E+01      0.6809435295E+01
          0                 2           2             4    7     1       0.1998174966E-01       4    7    1         0.1073006655E+01      0.1783335924E+01
          0                 3           2             4    7     1       0.7186369882E-02       4    7    1         0.3852303276E+00      0.6121348122E+00
          0                 4           2             4    7     1       0.2585998749E-02       4    7    1         0.1385973557E+00      0.2194654610E+00
          0                 5           2             4    7     1       0.9309945841E-03       4    7    1         0.4987850084E-01      0.7886420777E-01
          0                 6           2             4    7     1       0.3352987748E-03       4    7    1         0.1795871128E-01      0.2837440849E-01
          0                 7           2             4    7     1       0.1207967659E-03       4    7    1         0.6468363383E-02      0.1021708019E-01
          0                 8           1             4    7     1       0.4353064469E-04       4    7    1         0.2330486809E-02      0.3681218400E-02

    ------------------------------------------------
       NWT REQUIRED            8 OUTER ITERATIONS 
       AND A TOTAL OF         15 INNER ITERATIONS.
    ------------------------------------------------

 NO OUTPUT CONTROL FOR STRESS PERIOD   36   TIME STEP   20
 
 SOLVING FOR HEAD 
                                                   Max.-Head-Change                         Max.-Flux-Residual
  Residual-Control   Outer-Iter.   Inner-Iter.     Column Row Layer    Maximum-Head-Change  Column Row Layer    Maximum-Flux-Residual          L2-NORM 
          0                 1           2             4    6     1       0.4618505834E-01       4    6    1         0.2428449795E+01      0.6209812065E+01
          0                 2           2             4    6     1       0.1670129116E-01       4    6    1         0.8954992104E+00      0.1452735981E+01
          0                 3           2             4    6     1       0.6031268667E-02       4    6    1         0.3221935028E+00      0.4784911242E+00
          0                 4           2             4    6     1       0.2175524136E-02       4    6    1         0.1164166860E+00      0.1684364039E+00
          0                 5           2             4    6     1       0.7839451199E-03       4    6    1         0.4197823367E-01      0.5954412672E-01
          0                 6           2             4    6     1       0.2822490161E-03       4    6    1         0.1512375596E-01      0.2109997958E-01
          0                 7           1             4    6     1       0.1015437940E-03       4    6    1         0.5444112372E-02      0.7489652848E-02
          0                 8           1             4    6     1       0.3650809622E-04       4    6    1         0.1958299023E-02      0.2662006717E-02

    ------------------------------------------------
       NWT REQUIRED            8 OUTER ITERATIONS 
       AND A TOTAL OF         14 INNER ITERATIONS.
    ------------------------------------------------

 NO OUTPUT CONTROL FOR STRESS PERIOD   36   TIME STEP   21
 
 SOLVING FOR HEAD 
                                                   Max.-Head-Change                         Max.-Flux-Residual
  Residual-Control   Outer-Iter.   Inner-Iter.     Column Row Layer    Maximum-Head-Change  Column Row Layer    Maximum-Flux-Residual          L2-NORM 
          0                 1           2             4    6     1       0.4389062419E-01       4    6    1         0.2350868027E+01      0.5557928954E+01
          0                 2           2             4    6     1       0.1551287830E-01       4    6    1         0.8467006854E+00      0.1061409208E+01
          0                 3           2             4    6     1       0.5484758131E-02       4    6    1         0.2977825640E+00      0.3263614171E+00
          0                 4           2             4    6     1       0.1939724812E-02       4    6    1         0.1053880312E+00      0.1132400455E+00
          0                 5           2             4    6     1       0.6861458906E-03       4    6    1         0.3726945408E-01      0.3958341404E-01
          0                 6           2             4    6     1       0.2427544070E-03       4    6    1         0.1318421657E-01      0.1387696529E-01
          0                 7           1             4    6     1       0.8589663906E-04       4    6    1         0.4664658859E-02      0.4875178667E-02

    ------------------------------------------------
       NWT REQUIRED            7 OUTER ITERATIONS 
       AND A TOTAL OF         13 INNER ITERATIONS.
    ------------------------------------------------

 NO OUTPUT CONTROL FOR STRESS PERIOD   36   TIME STEP   22
 
 SOLVING FOR HEAD 
                                                   Max.-Head-Change                         Max.-Flux-Residual
  Residual-Control   Outer-Iter.   Inner-Iter.     Column Row Layer    Maximum-Head-Change  Column Row Layer    Maximum-Flux-Residual          L2-NORM 
          0                 1           2             3    7     1       0.4304292478E-01       4    6    1         0.2207017520E+01      0.5458437809E+01
          0                 2           2             4    6     1       0.1452724238E-01       4    6    1         0.7942341337E+00      0.1017474107E+01
          0                 3           2             4    6     1       0.5128307863E-02       4    6    1         0.2787365602E+00      0.3087042525E+00
          0                 4           2             4    6     1       0.1811311454E-02       4    6    1         0.9850729782E-01      0.1065968667E+00
          0                 5           2             4    6     1       0.6400275992E-03       4    6    1         0.3479257606E-01      0.3713639242E-01
          0                 6           2             4    6     1       0.2262312843E-03       4    6    1         0.1229495594E-01      0.1298546044E-01
          0                 7           1             4    6     1       0.7998966950E-04       4    6    1         0.4346147145E-02      0.4553198034E-02

    ------------------------------------------------
       NWT REQUIRED            7 OUTER ITERATIONS 
       AND A TOTAL OF         13 INNER ITERATIONS.
    ------------------------------------------------

 NO OUTPUT CONTROL FOR STRESS PERIOD   36   TIME STEP   23
 
 SOLVING FOR HEAD 
                                                   Max.-Head-Change                         Max.-Flux-Residual
  Residual-Control   Outer-Iter.   Inner-Iter.     Column Row Layer    Maximum-Head-Change  Column Row Layer    Maximum-Flux-Residual          L2-NORM 
          0                 1           2             3    7     1       0.4252168433E-01       4    6    1         0.2068702599E+01      0.5410032999E+01
          0                 2           2             4    6     1       0.1366934487E-01       4    6    1         0.7467070249E+00      0.1036269010E+01
          0                 3           2             4    6     1       0.4831736623E-02       4    6    1         0.2623448085E+00      0.3222526643E+00
          0                 4           2             4    6     1       0.1708495551E-02       4    6    1         0.9283538520E-01      0.1128328124E+00
          0                 5           2             4    6     1       0.6043009082E-03       4    6    1         0.3282434464E-01      0.3969894295E-01
          0                 6           2             4    6     1       0.2137980774E-03       4    6    1         0.1161079356E-01      0.1398208861E-01
          0                 7           1             4    6     1       0.7565723575E-04       4    6    1         0.4107987608E-02      0.4927606812E-02

    ------------------------------------------------
       NWT REQUIRED            7 OUTER ITERATIONS 
       AND A TOTAL OF         13 INNER ITERATIONS.
    ------------------------------------------------

 NO OUTPUT CONTROL FOR STRESS PERIOD   36   TIME STEP   24
 
 SOLVING FOR HEAD 
                                                   Max.-Head-Change                         Max.-Flux-Residual
  Residual-Control   Outer-Iter.   Inner-Iter.     Column Row Layer    Maximum-Head-Change  Column Row Layer    Maximum-Flux-Residual          L2-NORM 
          0                 1           2             5    8     1       0.6383012516E-01       5    8    1         0.3462405994E+01      0.6032722697E+01
          0                 2           2             5    8     1       0.2228740228E-01       5    8    1         0.1226502917E+01      0.1402085896E+01
          0                 3           2             5    8     1       0.7781733922E-02       5    8    1         0.4266031566E+00      0.4554274082E+00
          0                 4           2             5    8     1       0.2716935237E-02       5    8    1         0.1490508767E+00      0.1575014040E+00
          0                 5           2             5    8     1       0.9485688754E-03       5    8    1         0.5203552926E-01      0.5464156763E-01
          0                 6           1             5    8     1       0.3311661660E-03       5    8    1         0.1816731777E-01      0.1898186575E-01
          0                 7           1             5    8     1       0.1156142129E-03       5    8    1         0.6342562081E-02      0.6600227761E-02
          0                 8           1             5    8     1       0.4036130546E-04       5    8    1         0.2214254140E-02      0.2296678359E-02

    ------------------------------------------------
       NWT REQUIRED            8 OUTER ITERATIONS 
       AND A TOTAL OF         13 INNER ITERATIONS.
    ------------------------------------------------

 NO OUTPUT CONTROL FOR STRESS PERIOD   36   TIME STEP   25
 
 SOLVING FOR HEAD 
                                                   Max.-Head-Change                         Max.-Flux-Residual
  Residual-Control   Outer-Iter.   Inner-Iter.     Column Row Layer    Maximum-Head-Change  Column Row Layer    Maximum-Flux-Residual          L2-NORM 
          0                 1           2             5    8     1       0.5894168610E-01       5    8    1         0.3189707995E+01      0.5793084105E+01
          0                 2           2             5    8     1       0.2049221857E-01       5    8    1         0.1129493818E+01      0.1281780807E+01
          0                 3           2             5    8     1       0.7143521185E-02       5    8    1         0.3920768868E+00      0.4128469929E+00
          0                 4           2             5    8     1       0.2489861730E-02       5    8    1         0.1367784577E+00      0.1428910226E+00
          0                 5           2             5    8     1       0.8677253817E-03       5    8    1         0.4766814028E-01      0.4960902842E-01
          0                 6           1             5    8     1       0.3023698312E-03       5    8    1         0.1661222643E-01      0.1723634053E-01
          0                 7           1             5    8     1       0.1053533615E-03       5    8    1         0.5788584705E-02      0.5991422929E-02
          0                 8           1             5    8     1       0.3670426544E-04       5    8    1         0.2016844159E-02      0.2083394480E-02

    ------------------------------------------------
       NWT REQUIRED            8 OUTER ITERATIONS 
       AND A TOTAL OF         13 INNER ITERATIONS.
    ------------------------------------------------

 NO OUTPUT CONTROL FOR STRESS PERIOD   36   TIME STEP   26
 
 SOLVING FOR HEAD 
                                                   Max.-Head-Change                         Max.-Flux-Residual
  Residual-Control   Outer-Iter.   Inner-Iter.     Column Row Layer    Maximum-Head-Change  Column Row Layer    Maximum-Flux-Residual          L2-NORM 
          0                 1           2             5    8     1       0.5435726246E-01       5    8    1         0.2940106900E+01      0.5626265826E+01
          0                 2           2             5    8     1       0.1897485659E-01       5    8    1         0.1045325105E+01      0.1208453984E+01
          0                 3           2             5    8     1       0.6621624303E-02       5    8    1         0.3631115341E+00      0.3859351040E+00
          0                 4           2             5    8     1       0.2310103764E-02       5    8    1         0.1268159455E+00      0.1335305049E+00
          0                 5           2             5    8     1       0.8057343189E-03       5    8    1         0.4423552902E-01      0.4635591523E-01
          0                 6           1             5    8     1       0.2809682783E-03       5    8    1         0.1542814669E-01      0.1610537422E-01
          0                 7           1             5    8     1       0.9795762209E-04       5    8    1         0.5379699687E-02      0.5598100766E-02

    ------------------------------------------------
       NWT REQUIRED            7 OUTER ITERATIONS 
       AND A TOTAL OF         12 INNER ITERATIONS.
    ------------------------------------------------

 NO OUTPUT CONTROL FOR STRESS PERIOD   36   TIME STEP   27
 
 SOLVING FOR HEAD 
                                                   Max.-Head-Change                         Max.-Flux-Residual
  Residual-Control   Outer-Iter.   Inner-Iter.     Column Row Layer    Maximum-Head-Change  Column Row Layer    Maximum-Flux-Residual          L2-NORM 
          0                 1           2             5    8     1       0.5034256254E-01       5    8    1         0.2715864166E+01      0.5482408413E+01
          0                 2           2             5    8     1       0.1759584579E-01       5    8    1         0.9688306293E+00      0.1144109322E+01
          0                 3           2             5    8     1       0.6147221431E-02       5    8    1         0.3367867896E+00      0.3620506454E+00
          0                 4           2             5    8     1       0.2146679389E-02       5    8    1         0.1177596348E+00      0.1251798106E+00
          0                 5           2             5    8     1       0.7493694420E-03       5    8    1         0.4111472089E-01      0.4344251817E-01
          0                 6           1             5    8     1       0.2615073888E-03       5    8    1         0.1435150519E-01      0.1508942681E-01
          0                 7           1             5    8     1       0.9123209825E-04       5    8    1         0.5007885070E-02      0.5243929491E-02

    ------------------------------------------------
       NWT REQUIRED            7 OUTER ITERATIONS 
       AND A TOTAL OF         12 INNER ITERATIONS.
    ------------------------------------------------

 NO OUTPUT CONTROL FOR STRESS PERIOD   36   TIME STEP   28
 
 SOLVING FOR HEAD 
                                                   Max.-Head-Change                         Max.-Flux-Residual
  Residual-Control   Outer-Iter.   Inner-Iter.     Column Row Layer    Maximum-Head-Change  Column Row Layer    Maximum-Flux-Residual          L2-NORM 
          0                 1           2             5    8     1       0.4712523592E-01       5    8    1         0.2516890580E+01      0.5686171702E+01
          0                 2           2             5    8     1       0.1665951346E-01       5    8    1         0.9094578880E+00      0.1305293559E+01
          0                 3           2             5    8     1       0.5889630920E-02       5    8    1         0.3196565245E+00      0.4333781574E+00
          0                 4           2             5    8     1       0.2082341619E-02       5    8    1         0.1131258176E+00      0.1538806584E+00
          0                 5           2             5    8     1       0.7363257459E-03       5    8    1         0.3999295477E-01      0.5478269150E-01
          0                 6           2             5    8     1       0.2604089212E-03       5    8    1         0.1414230663E-01      0.1951960598E-01
          0                 7           1             5    8     1       0.9211303799E-04       5    8    1         0.5001739476E-02      0.6958927848E-02

    ------------------------------------------------
       NWT REQUIRED            7 OUTER ITERATIONS 
       AND A TOTAL OF         13 INNER ITERATIONS.
    ------------------------------------------------

 NO OUTPUT CONTROL FOR STRESS PERIOD   36   TIME STEP   29
 
 SOLVING FOR HEAD 
                                                   Max.-Head-Change                         Max.-Flux-Residual
  Residual-Control   Outer-Iter.   Inner-Iter.     Column Row Layer    Maximum-Head-Change  Column Row Layer    Maximum-Flux-Residual          L2-NORM 
          0                 1           2             4    8     1       0.6159003692E-01       4    8    1         0.3282811708E+01      0.6458507755E+01
          0                 2           2             4    8     1       0.2210441988E-01       4    8    1         0.1189271507E+01      0.1730624823E+01
          0                 3           2             4    8     1       0.7934422490E-02       4    8    1         0.4257843649E+00      0.5979668120E+00
          0                 4           2             4    8     1       0.2848484642E-02       4    8    1         0.1529079262E+00      0.2145196011E+00
          0                 5           2             4    8     1       0.1022748122E-02       4    8    1         0.5489345124E-01      0.7702777923E-01
          0                 6           2             4    8     1       0.3672606485E-03       4    8    1         0.1971014682E-01      0.2766517752E-01
          0                 7           2             4    8     1       0.1318943264E-03       4    8    1         0.7077928248E-02      0.9937268049E-02
          0                 8           1             4    8     1       0.4737174742E-04       4    8    1         0.2541954147E-02      0.3569771297E-02

    ------------------------------------------------
       NWT REQUIRED            8 OUTER ITERATIONS 
       AND A TOTAL OF         15 INNER ITERATIONS.
    ------------------------------------------------

 NO OUTPUT CONTROL FOR STRESS PERIOD   36   TIME STEP   30



 STREAM LISTING     PERIOD     36   STEP       30

 LAYER ROW COL. STREAM  RCH.  FLOW INTO     FLOW TO   FLOW OUT OF   OVRLND.     DIRECT     STREAM       STREAM     STREAM     STREAM   STREAMBED  STREAMBED
                SEG.NO.  NO.  STRM. RCH.    AQUIFER    STRM. RCH.    RUNOFF     PRECIP       ET          HEAD       DEPTH      WIDTH   CONDCTNC.   GRADIENT

   1    1    1     1     1    9.7497E+00  1.4616E-01   9.6035E+00  0.000E+00  0.000E+00  0.000E+00  1.09394E+03  8.903E-01  8.349E+00  3.757E-02  1.297E+00
   1    2    2     1     2    9.6035E+00  2.2466E-01   9.3789E+00  0.000E+00  0.000E+00  0.000E+00  1.08894E+03  8.846E-01  8.262E+00  5.783E-02  1.295E+00
   1    3    3     1     3    9.3789E+00  1.8995E-01   9.1889E+00  0.000E+00  0.000E+00  0.000E+00  1.08330E+03  8.782E-01  8.163E+00  4.898E-02  1.293E+00
   1    3    4     1     4    9.1889E+00  1.7356E-01   9.0154E+00  0.000E+00  0.000E+00  0.000E+00  1.07828E+03  8.725E-01  8.076E+00  4.482E-02  1.291E+00
   1    4    5     2     1    7.0154E+00  2.7742E-01   6.7380E+00  0.000E+00  0.000E+00  0.000E+00  1.07249E+03  5.566E-01  1.200E+01  7.800E-02  1.186E+00
   1    5    6     2     2    6.7380E+00  2.1268E-01   6.5253E+00  0.000E+00  0.000E+00  0.000E+00  1.06705E+03  5.446E-01  1.200E+01  6.000E-02  1.182E+00
   1    6    6     2     3    6.5253E+00  2.1205E-01   6.3132E+00  0.000E+00  0.000E+00  0.000E+00  1.06233E+03  5.341E-01  1.200E+01  6.000E-02  1.178E+00
   1    7    6     2     4    6.3132E+00  2.1141E-01   6.1018E+00  0.000E+00  0.000E+00  0.000E+00  1.05760E+03  5.235E-01  1.200E+01  6.000E-02  1.174E+00
   1    8    6     2     5    6.1018E+00  2.1076E-01   5.8911E+00  0.000E+00  0.000E+00  0.000E+00  1.05287E+03  5.127E-01  1.200E+01  6.000E-02  1.171E+00
   1    3    5     3     1    2.0000E+00  2.8252E-01   1.7175E+00  0.000E+00  0.000E+00  0.000E+00  1.07555E+03  1.909E+00  9.636E+00  7.227E-02  1.955E+00
   1    3    6     3     2    1.7175E+00  2.4905E-01   1.4684E+00  0.000E+00  0.000E+00  0.000E+00  1.07264E+03  1.727E+00  8.909E+00  6.682E-02  1.864E+00
   1    3    7     3     3    1.4684E+00  1.9718E-01   1.2712E+00  0.000E+00  0.000E+00  0.000E+00  1.06987E+03  1.555E+00  8.218E+00  5.547E-02  1.777E+00
   1    4    8     3     4    1.2712E+00  2.2567E-01   1.0456E+00  0.000E+00  0.000E+00  0.000E+00  1.06682E+03  1.364E+00  7.455E+00  6.709E-02  1.682E+00
   1    5    8     3     5    1.0456E+00  1.5790E-01   8.8768E-01  0.000E+00  0.000E+00  0.000E+00  1.06362E+03  1.164E+00  6.655E+00  4.991E-02  1.582E+00
   1    6    8     3     6    8.8768E-01  5.5980E-02   8.3170E-01  0.000E+00  0.000E+00  0.000E+00  1.06158E+03  1.036E+00  6.145E+00  1.844E-02  1.518E+00
   1    5   10     4     1    1.0000E+01  9.0919E-02   9.9091E+00  0.000E+00  0.000E+00  0.000E+00  1.07836E+03  6.368E-01  1.000E+01  2.500E-02  1.212E+00
   1    5    9     4     2    9.9091E+00  1.8158E-01   9.7275E+00  0.000E+00  0.000E+00  0.000E+00  1.07154E+03  6.315E-01  1.000E+01  5.000E-02  1.211E+00
   1    6    8     4     3    9.7275E+00  1.2689E-01   9.6006E+00  0.000E+00  0.000E+00  0.000E+00  1.06381E+03  6.256E-01  1.000E+01  3.500E-02  1.209E+00
   1    6    8     5     1    1.0432E+01  2.2686E-01   1.0205E+01  0.000E+00  0.000E+00  0.000E+00  1.05868E+03  6.790E-01  1.542E+01  6.166E-02  1.226E+00
   1    7    7     5     2    1.0205E+01  2.7894E-01   9.9265E+00  0.000E+00  0.000E+00  0.000E+00  1.05417E+03  6.732E-01  1.519E+01  7.594E-02  1.224E+00
   1    8    7     5     3    9.9265E+00  1.9221E-01   9.7343E+00  0.000E+00  0.000E+00  0.000E+00  1.04992E+03  6.676E-01  1.497E+01  5.241E-02  1.223E+00
   1    8    6     5     4    9.7343E+00  1.3577E-01   9.5985E+00  0.000E+00  0.000E+00  0.000E+00  1.04691E+03  6.637E-01  1.482E+01  3.706E-02  1.221E+00
   1    9    6     6     1    1.5490E+01  2.3472E-01   1.5255E+01  0.000E+00  0.000E+00  0.000E+00  1.04364E+03  9.120E-01  1.200E+01  6.000E-02  1.304E+00
   1   10    7     6     2    1.5255E+01  2.3422E-01   1.5021E+01  0.000E+00  0.000E+00  0.000E+00  1.03909E+03  9.037E-01  1.200E+01  6.000E-02  1.301E+00
   1   11    7     6     3    1.5021E+01  2.3372E-01   1.4787E+01  0.000E+00  0.000E+00  0.000E+00  1.03453E+03  8.953E-01  1.200E+01  6.000E-02  1.298E+00
   1   12    7     6     4    1.4787E+01  2.3321E-01   1.4554E+01  0.000E+00  0.000E+00  0.000E+00  1.02998E+03  8.868E-01  1.200E+01  6.000E-02  1.296E+00
   1   13    7     6     5    1.4554E+01  1.1678E-02   1.4542E+01  0.000E+00  0.000E+00  0.000E+00  1.02679E+03  8.824E-01  1.200E+01  2.400E-02  1.622E-01
   1   14    9     7     1    1.5000E+02  1.4176E+00   1.4858E+02  0.000E+00  0.000E+00  0.000E+00  1.03987E+03  2.287E+00  5.529E+01  5.593E-01  8.449E-01
   1   13    8     7     2    1.4858E+02  2.0858E+00   1.4650E+02  0.000E+00  0.000E+00  0.000E+00  1.03478E+03  2.278E+00  5.525E+01  6.147E-01  1.131E+00
   1   13    7     7     3    1.4650E+02  1.8882E+00   1.4461E+02  0.000E+00  0.000E+00  0.000E+00  1.02969E+03  2.268E+00  5.520E+01  5.583E-01  1.127E+00
   1   13    6     8     1    1.5915E+02  1.2653E+00   1.5789E+02  0.000E+00  0.000E+00  0.000E+00  1.02475E+03  2.876E+00  4.170E+01  4.249E-01  9.926E-01
   1   13    5     8     2    1.5789E+02  5.0444E-01   1.5738E+02  0.000E+00  0.000E+00  0.000E+00  1.01849E+03  2.870E+00  4.161E+01  4.240E-01  3.965E-01
   1   13    4     8     3    1.5738E+02 -1.2977E+00   1.5868E+02  0.000E+00  0.000E+00  0.000E+00  1.01225E+03  2.872E+00  4.165E+01  4.244E+00 -1.019E-01
   1   13    3     8     4    1.5868E+02 -3.0989E+00   1.6178E+02  0.000E+00  0.000E+00  0.000E+00  1.00601E+03  2.887E+00  4.187E+01  4.266E+00 -2.421E-01
   1   13    2     8     5    1.6178E+02 -2.4487E+00   1.6423E+02  0.000E+00  0.000E+00  0.000E+00  9.99781E+02  2.906E+00  4.214E+01  4.294E+00 -1.901E-01
   1   13    1     8     6    1.6423E+02 -1.9533E+00   1.6618E+02  0.000E+00  0.000E+00  0.000E+00  9.94796E+02  2.921E+00  4.235E+01  2.589E+00 -2.515E-01
   1    8    6     9     1    0.0000E+00  0.0000E+00   0.0000E+00  0.000E+00  0.000E+00  0.000E+00  1.07875E+03  0.000E+00  4.000E+00  0.000E+00  1.000E+00
   1    8    5     9     2    0.0000E+00  0.0000E+00   0.0000E+00  0.000E+00  0.000E+00  0.000E+00  1.07825E+03  0.000E+00  4.000E+00  0.000E+00  1.000E+00





UNSATURATED ZONE PACKAGE VOLUMETRIC BUDGET FOR  TIME STEP    30 STRESS PERIOD   36
  ------------------------------------------------------------------------------



     CUMULATIVE VOLUMES      L**3       RATES FOR THIS TIME STEP      L**3/T
     ------------------                 ------------------------

           IN:                                      IN:
           ---                                      ---
        INFILTRATION =  9909087710.7728          INFILTRATION =           0.8475

          OUT:                                     OUT:
          ----                                     ----
              UZF ET =  1283905695.9185                UZF ET =           0.7950
        UZF RECHARGE =  8071772522.0232          UZF RECHARGE =          25.0475

            IN - OUT =   553409492.8311              IN - OUT =         -24.9950

          STORAGE:                                 STORAGE:
          --------                                 --------
      STORAGE CHANGE =   554533365.1027        STORAGE CHANGE =         -24.9950

 PERCENT DISCREPANCY IS DIFFERENCE BETWEEN IN-OUT MINUS CHANGE IN STORAGE
 DIVIDED BY THE AVERAGE OF IN AND OUT TIMES 100

 PERCENT DISCREPANCY =          -0.00     PERCENT DISCREPANCY =           0.00






1
  VOLUMETRIC BUDGET FOR AGRICULTURAL FIELDS AT  END OF TIME STEP   30, STRESS PERIOD  36
  ------------------------------------------------------------------------------

     CUMULATIVE VOLUMES      L**3       RATES FOR THIS TIME STEP      L**3/T
     ------------------                 ------------------------

           IN:                                      IN:
           ---                                      ---
               AG WELLS  =  9374535680.0000                 AG WELLS  =           0.0000
      DIVERSION SEGMENTS =   456493472.0000        DIVERSION SEGMENTS =           0.0000
           GW IRRIGATION =           0.0000             GW IRRIGATION =           0.0000
           SW IRRIGATION =           0.0000             SW IRRIGATION =           0.0000
        SYSTEM LOSSES GW =           0.0000          SYSTEM LOSSES GW =           0.0000
        SYSTEM LOSSES SW =           0.0000          SYSTEM LOSSES SW =           0.0000

                TOTAL IN =  9831028736.0000                  TOTAL IN =           0.0000

          OUT:                                     OUT:
          ----                                     ----
               AG WELLS  =           0.0000                 AG WELLS  =           0.0000
      DIVERSION SEGMENTS =           0.0000        DIVERSION SEGMENTS =           0.0000
           GW IRRIGATION =  9374535680.0000             GW IRRIGATION =           0.0000
           SW IRRIGATION =   456501856.0000             SW IRRIGATION =           0.0000
        SYSTEM LOSSES GW =           0.0000          SYSTEM LOSSES GW =           0.0000
        SYSTEM LOSSES SW =           0.0000          SYSTEM LOSSES SW =           0.0000

               TOTAL OUT =  9831037952.0000                 TOTAL OUT =           0.0000

                IN - OUT =       -9216.0000                  IN - OUT =           0.0000

     PERCENT DISCREPANCY =          -0.00         PERCENT DISCREPANCY =           0.00



1
  VOLUMETRIC BUDGET FOR ENTIRE MODEL AT END OF TIME STEP   30, STRESS PERIOD  36
  ------------------------------------------------------------------------------

     CUMULATIVE VOLUMES      L**3       RATES FOR THIS TIME STEP      L**3/T
     ------------------                 ------------------------

           IN:                                      IN:
           ---                                      ---
             STORAGE     =  8157991424.0000               STORAGE     =           5.2269
       CONSTANT HEAD     =           0.0000         CONSTANT HEAD     =           0.0000
     HEAD DEP BOUNDS     =    26640202.0000       HEAD DEP BOUNDS     =           0.2913
      STREAM LEAKAGE     =  1130787712.0000        STREAM LEAKAGE     =          12.3691
        UZF RECHARGE     =  8071772672.0000          UZF RECHARGE     =          25.0475
               GW ET     =           0.0000                 GW ET     =           0.0000
     SURFACE LEAKAGE     =           0.0000       SURFACE LEAKAGE     =           0.0000
           AG WELLS      =           0.0000             AG WELLS      =           0.0000

                TOTAL IN = 17387192320.0000                  TOTAL IN =          42.9347

          OUT:                                     OUT:
          ----                                     ----
             STORAGE     =  7116127744.0000               STORAGE     =          33.8470
       CONSTANT HEAD     =           0.0000         CONSTANT HEAD     =           0.0000
     HEAD DEP BOUNDS     =    26517244.0000       HEAD DEP BOUNDS     =           0.2869
      STREAM LEAKAGE     =   869879232.0000        STREAM LEAKAGE     =           8.7985
        UZF RECHARGE     =           0.0000          UZF RECHARGE     =           0.0000
               GW ET     =           0.0000                 GW ET     =           0.0000
     SURFACE LEAKAGE     =           0.0000       SURFACE LEAKAGE     =           0.0000
           AG WELLS      =  9374535680.0000             AG WELLS      =           0.0000

               TOTAL OUT = 17387059200.0000                 TOTAL OUT =          42.9323

                IN - OUT =      133120.0000                  IN - OUT =       2.3804E-03

     PERCENT DISCREPANCY =           0.00         PERCENT DISCREPANCY =           0.01






         TIME SUMMARY AT END OF TIME STEP   30 IN STRESS PERIOD   36
                    SECONDS     MINUTES      HOURS       DAYS        YEARS
                    -----------------------------------------------------------
   TIME STEP LENGTH  87667.      1461.1      24.352      1.0147     2.77799E-03
 STRESS PERIOD TIME 2.63000E+06  43833.      730.56      30.440     8.33397E-02
         TOTAL TIME 9.21360E+07 1.53560E+06  25593.      1066.4      2.9196    
1
1
                            STRESS PERIOD NO.   37, LENGTH =   2630000.    
                            -----------------------------------------------

                              NUMBER OF TIME STEPS =    30

                               MULTIPLIER FOR DELT =     1.000

                            INITIAL TIME STEP SIZE =   87666.66    

 REUSING NON-PARAMETER GHB CELLS FROM LAST STRESS PERIOD

      2 GHB CELLS

 REUSING STREAM SEGMENT DATA FROM LAST STRESS PERIOD



            AREAL INFILTRATION RATE
 READING ON UNIT   19 WITH FORMAT: (FREE)              

            1           2           3           4           5           6           7           8           9          10
 ........................................................................................................................
   1   1.0000E-10  2.0000E-10   0.000       0.000       0.000       0.000       0.000       0.000       0.000       0.000    
   2   2.0000E-10  1.0000E-10  2.0000E-10   0.000       0.000      8.0000E-10  8.0000E-10  5.0000E-10   0.000       0.000    
   3    0.000      5.0000E-10  1.0000E-10  1.0000E-10  8.0000E-10  8.0000E-10  5.0000E-10  5.0000E-10   0.000       0.000    
   4   8.0000E-10  5.0000E-10  1.0000E-10  1.0000E-10  1.0000E-10  1.0000E-10  1.0000E-10  1.0000E-10  2.0000E-10   0.000    
   5   8.0000E-10  5.0000E-10  1.0000E-10  1.0000E-10  1.0000E-10  1.0000E-10  1.0000E-10  1.0000E-10  1.0000E-10  1.0000E-10
   6   8.0000E-10  5.0000E-10  5.0000E-10  2.0000E-10  2.0000E-10  1.0000E-10  1.0000E-10  1.0000E-10  1.0000E-10  5.0000E-10
   7   8.0000E-10  5.0000E-10  5.0000E-10  2.0000E-10  2.0000E-10  1.0000E-10  1.0000E-10  2.0000E-10  2.0000E-10   0.000    
   8    0.000      5.0000E-10  5.0000E-10  2.0000E-10  2.0000E-10  1.0000E-10  1.0000E-10  2.0000E-10  5.0000E-10   0.000    
   9    0.000      5.0000E-10  5.0000E-10  2.0000E-10  2.0000E-10  1.0000E-10  1.0000E-10  2.0000E-10  5.0000E-10   0.000    
  10    0.000      5.0000E-10  5.0000E-10  2.0000E-10  2.0000E-10  1.0000E-10  1.0000E-10  2.0000E-10  5.0000E-10  8.0000E-10
  11    0.000      1.0000E-10  1.0000E-10  1.0000E-10  1.0000E-10  1.0000E-10  1.0000E-10  2.0000E-10  5.0000E-10   0.000    
  12   1.0000E-10  1.0000E-10  1.0000E-10  1.0000E-10  1.0000E-10  1.0000E-10  1.0000E-10  1.0000E-10  2.0000E-10   0.000    
  13   1.0000E-10  1.0000E-10  2.0000E-10  2.0000E-10  2.0000E-10  2.0000E-10  2.0000E-10  1.0000E-10  1.0000E-10   0.000    
  14    0.000      2.0000E-10  5.0000E-10  5.0000E-10  5.0000E-10  5.0000E-10  5.0000E-10  2.0000E-10  1.0000E-10   0.000    
  15    0.000       0.000      8.0000E-10  8.0000E-10  8.0000E-10  8.0000E-10   0.000       0.000       0.000       0.000    

                  ET RATE =  5.000000E-10

 USING ET EXTINCTION DEPTH FROM PREVIOUS STRESS PERIOD. CURRENT PERIOD IS:      37

 USING EXTINCTION WATER CONTENT FROM PREVIOUS STRESS PERIOD. CURRENT PERIOD IS:      37

 USING AIR ENTRY PRESSURE FROM PREVIOUS STRESS PERIOD. CURRENT PERIOD IS:      37

 USING ROOT PRESSURE HEAD FROM PREVIOUS STRESS PERIOD. CURRENT PERIOD IS:      37

 USING ROOT ACTIVITY FROM PREVIOUS STRESS PERIOD. CURRENT PERIOD IS:      37

 PROCESSING AG STRESS PERIOD DATA

 READING AG STRESS PERIOD DATA

 READING IRRIGATION SEGMENT

 READING IRRIGATION WELL

 READING SUPPLEMENTAL WELL

 END PROCESSING AG STRESS PERIOD DATA OPTIONS
 
 SOLVING FOR HEAD 
                                                   Max.-Head-Change                         Max.-Flux-Residual
  Residual-Control   Outer-Iter.   Inner-Iter.     Column Row Layer    Maximum-Head-Change  Column Row Layer    Maximum-Flux-Residual          L2-NORM 
          0                 1           2             5    7     1       0.5908973391E-01       5    7    1         0.3191038300E+01      0.6805467432E+01
          0                 2           2             4    8     1       0.2108099585E-01       5    7    1         0.1136843127E+01      0.1892846022E+01
          0                 3           2             4    8     1       0.7577179231E-02       4    8    1         0.4061696017E+00      0.6563961157E+00
          0                 4           2             4    8     1       0.2724123662E-02       4    8    1         0.1460670318E+00      0.2349823666E+00
          0                 5           2             4    8     1       0.9795722858E-03       4    8    1         0.5251341885E-01      0.8419462785E-01
          0                 6           2             4    8     1       0.3523105563E-03       4    8    1         0.1888433883E-01      0.3017894840E-01
          0                 7           2             4    8     1       0.1267314796E-03       4    8    1         0.6792153175E-02      0.1082022269E-01
          0                 8           1             4    8     1       0.4559363273E-04       4    8    1         0.2443324062E-02      0.3880328981E-02

    ------------------------------------------------
       NWT REQUIRED            8 OUTER ITERATIONS 
       AND A TOTAL OF         15 INNER ITERATIONS.
    ------------------------------------------------

 NO OUTPUT CONTROL FOR STRESS PERIOD   37   TIME STEP    1
 
 SOLVING FOR HEAD 
                                                   Max.-Head-Change                         Max.-Flux-Residual
  Residual-Control   Outer-Iter.   Inner-Iter.     Column Row Layer    Maximum-Head-Change  Column Row Layer    Maximum-Flux-Residual          L2-NORM 
          0                 1           2             4    8     1       0.5654759091E-01       4    8    1         0.2976365179E+01      0.7157072754E+01
          0                 2           2             4    8     1       0.2059184647E-01       4    8    1         0.1095674130E+01      0.2077523884E+01
          0                 3           2             4    8     1       0.7498984390E-02       4    8    1         0.3978788295E+00      0.7337550673E+00
          0                 4           2             4    8     1       0.2731072930E-02       4    8    1         0.1449692580E+00      0.2661656380E+00
          0                 5           2             4    8     1       0.9946815413E-03       4    8    1         0.5279443047E-01      0.9661525017E-01
          0                 6           2             4    8     1       0.3622859183E-03       4    8    1         0.1922851493E-01      0.3508204629E-01
          0                 7           2             4    8     1       0.1319570104E-03       4    8    1         0.7003518883E-02      0.1274146259E-01
          0                 8           1             4    8     1       0.4806448636E-04       4    8    1         0.2550939509E-02      0.4628474166E-02

    ------------------------------------------------
       NWT REQUIRED            8 OUTER ITERATIONS 
       AND A TOTAL OF         15 INNER ITERATIONS.
    ------------------------------------------------

 NO OUTPUT CONTROL FOR STRESS PERIOD   37   TIME STEP    2
 
 SOLVING FOR HEAD 
                                                   Max.-Head-Change                         Max.-Flux-Residual
  Residual-Control   Outer-Iter.   Inner-Iter.     Column Row Layer    Maximum-Head-Change  Column Row Layer    Maximum-Flux-Residual          L2-NORM 
          0                 1           2             4    7     1       0.5961438984E-01       4    7    1         0.3156053178E+01      0.7772588086E+01
          0                 2           2             4    7     1       0.2170848702E-01       4    7    1         0.1153273968E+01      0.2352124567E+01
          0                 3           2             4    7     1       0.7909826340E-02       4    7    1         0.4195914912E+00      0.8343671830E+00
          0                 4           2             4    7     1       0.2883443266E-02       4    7    1         0.1529313485E+00      0.3026044248E+00
          0                 5           2             4    7     1       0.1051523755E-02       4    7    1         0.5575379374E-01      0.1098198088E+00
          0                 6           2             4    7     1       0.3835778456E-03       4    7    1         0.2033369530E-01      0.3987475027E-01
          0                 7           2             4    7     1       0.1399537112E-03       4    7    1         0.7417820029E-02      0.1448302598E-01
          0                 8           1             4    7     1       0.5107245745E-04       4    7    1         0.2706615876E-02      0.5261891431E-02

    ------------------------------------------------
       NWT REQUIRED            8 OUTER ITERATIONS 
       AND A TOTAL OF         15 INNER ITERATIONS.
    ------------------------------------------------

 NO OUTPUT CONTROL FOR STRESS PERIOD   37   TIME STEP    3
 
 SOLVING FOR HEAD 
                                                   Max.-Head-Change                         Max.-Flux-Residual
  Residual-Control   Outer-Iter.   Inner-Iter.     Column Row Layer    Maximum-Head-Change  Column Row Layer    Maximum-Flux-Residual          L2-NORM 
          0                 1           2             4    7     1       0.5766000615E-01       4    7    1         0.3048995609E+01      0.7667945459E+01
          0                 2           2             4    7     1       0.2102112362E-01       4    7    1         0.1115824292E+01      0.2296458827E+01
          0                 3           2             4    7     1       0.7666903730E-02       4    7    1         0.4064004035E+00      0.8138174818E+00
          0                 4           2             4    7     1       0.2797221434E-02       4    7    1         0.1482649065E+00      0.2952603767E+00
          0                 5           2             4    7     1       0.1020804642E-02       4    7    1         0.5409597199E-01      0.1071831322E+00
          0                 6           2             4    7     1       0.3725970832E-03       4    7    1         0.1974257192E-01      0.3892456060E-01
          0                 7           2             4    7     1       0.1360173303E-03       4    7    1         0.7206371190E-02      0.1413963873E-01
          0                 8           1             4    7     1       0.4965786903E-04       4    7    1         0.2630770050E-02      0.5137542501E-02

    ------------------------------------------------
       NWT REQUIRED            8 OUTER ITERATIONS 
       AND A TOTAL OF         15 INNER ITERATIONS.
    ------------------------------------------------

 NO OUTPUT CONTROL FOR STRESS PERIOD   37   TIME STEP    4
 
 SOLVING FOR HEAD 
                                                   Max.-Head-Change                         Max.-Flux-Residual
  Residual-Control   Outer-Iter.   Inner-Iter.     Column Row Layer    Maximum-Head-Change  Column Row Layer    Maximum-Flux-Residual          L2-NORM 
          0                 1           2             4    7     1       0.5586478565E-01       4    7    1         0.2950838967E+01      0.7542545201E+01
          0                 2           2             4    7     1       0.2038797526E-01       4    7    1         0.1081406286E+01      0.2230740634E+01
          0                 3           2             4    7     1       0.7442409851E-02       4    7    1         0.3942419590E+00      0.7896030339E+00
          0                 4           2             4    7     1       0.2717248898E-02       4    7    1         0.1439492803E+00      0.2866191179E+00
          0                 5           2             4    7     1       0.9921988948E-03       4    7    1         0.5255704836E-01      0.1040901128E+00
          0                 6           2             4    7     1       0.3623287753E-03       4    7    1         0.1919163114E-01      0.3781423490E-01
          0                 7           2             4    7     1       0.1323202725E-03       4    7    1         0.7008458647E-02      0.1374013258E-01
          0                 8           1             4    7     1       0.4832334441E-04       4    7    1         0.2559467429E-02      0.4993536424E-02

    ------------------------------------------------
       NWT REQUIRED            8 OUTER ITERATIONS 
       AND A TOTAL OF         15 INNER ITERATIONS.
    ------------------------------------------------

 NO OUTPUT CONTROL FOR STRESS PERIOD   37   TIME STEP    5
 
 SOLVING FOR HEAD 
                                                   Max.-Head-Change                         Max.-Flux-Residual
  Residual-Control   Outer-Iter.   Inner-Iter.     Column Row Layer    Maximum-Head-Change  Column Row Layer    Maximum-Flux-Residual          L2-NORM 
          0                 1           2             4    7     1       0.5445440542E-01       4    7    1         0.2860533930E+01      0.7539813944E+01
          0                 2           2             4    7     1       0.2000536449E-01       4    7    1         0.1055684737E+01      0.2230336087E+01
          0                 3           2             4    7     1       0.7349606848E-02       4    7    1         0.3873868829E+00      0.7928365380E+00
          0                 4           2             4    7     1       0.2700089037E-02       4    7    1         0.1423481092E+00      0.2892068659E+00
          0                 5           2             4    7     1       0.9919304095E-03       4    7    1         0.5229435280E-01      0.1055396215E+00
          0                 6           2             4    7     1       0.3643908142E-03       4    7    1         0.1921128471E-01      0.3852640451E-01
          0                 7           2             4    7     1       0.1338540828E-03       4    7    1         0.7057300891E-02      0.1406656682E-01
          0                 8           1             4    7     1       0.4916652589E-04       4    7    1         0.2592375562E-02      0.5136878142E-02

    ------------------------------------------------
       NWT REQUIRED            8 OUTER ITERATIONS 
       AND A TOTAL OF         15 INNER ITERATIONS.
    ------------------------------------------------

 NO OUTPUT CONTROL FOR STRESS PERIOD   37   TIME STEP    6
 
 SOLVING FOR HEAD 
                                                   Max.-Head-Change                         Max.-Flux-Residual
  Residual-Control   Outer-Iter.   Inner-Iter.     Column Row Layer    Maximum-Head-Change  Column Row Layer    Maximum-Flux-Residual          L2-NORM 
          0                 1           2             4    6     1       0.5676106032E-01       4    6    1         0.2990667009E+01      0.7925737334E+01
          0                 2           2             4    6     1       0.2063243447E-01       4    6    1         0.1099503397E+01      0.2396206283E+01
          0                 3           2             4    6     1       0.7501820458E-02       4    6    1         0.3984991376E+00      0.8554440303E+00
          0                 4           2             4    7     1       0.2734844864E-02       4    6    1         0.1449749688E+00      0.3124797886E+00
          0                 5           2             4    7     1       0.1012004874E-02       4    7    1         0.5305564584E-01      0.1141687247E+00
          0                 6           2             4    7     1       0.3742266853E-03       4    7    1         0.1962978124E-01      0.4172084334E-01
          0                 7           2             4    7     1       0.1382962425E-03       4    7    1         0.7257802667E-02      0.1524751590E-01
          0                 8           1             4    7     1       0.5107740977E-04       4    7    1         0.2681778224E-02      0.5572948941E-02

    ------------------------------------------------
       NWT REQUIRED            8 OUTER ITERATIONS 
       AND A TOTAL OF         15 INNER ITERATIONS.
    ------------------------------------------------

 NO OUTPUT CONTROL FOR STRESS PERIOD   37   TIME STEP    7
 
 SOLVING FOR HEAD 
                                                   Max.-Head-Change                         Max.-Flux-Residual
  Residual-Control   Outer-Iter.   Inner-Iter.     Column Row Layer    Maximum-Head-Change  Column Row Layer    Maximum-Flux-Residual          L2-NORM 
          0                 1           2             4    6     1       0.5508358115E-01       4    6    1         0.2899838988E+01      0.7852799750E+01
          0                 2           2             4    6     1       0.2003036634E-01       4    6    1         0.1067254330E+01      0.2348982808E+01
          0                 3           2             4    7     1       0.7308870191E-02       4    6    1         0.3868917607E+00      0.8374507326E+00
          0                 4           2             4    7     1       0.2704732565E-02       4    7    1         0.1417960306E+00      0.3059236247E+00
          0                 5           2             4    7     1       0.1000233126E-02       4    7    1         0.5246397898E-01      0.1117816325E+00
          0                 6           2             4    7     1       0.3696595708E-03       4    7    1         0.1939889710E-01      0.4085138119E-01
          0                 7           2             4    7     1       0.1365355245E-03       4    7    1         0.7168359375E-02      0.1493069797E-01
          0                 8           1             4    7     1       0.5040224727E-04       4    7    1         0.2647339211E-02      0.5457462995E-02

    ------------------------------------------------
       NWT REQUIRED            8 OUTER ITERATIONS 
       AND A TOTAL OF         15 INNER ITERATIONS.
    ------------------------------------------------

 NO OUTPUT CONTROL FOR STRESS PERIOD   37   TIME STEP    8
 
 SOLVING FOR HEAD 
                                                   Max.-Head-Change                         Max.-Flux-Residual
  Residual-Control   Outer-Iter.   Inner-Iter.     Column Row Layer    Maximum-Head-Change  Column Row Layer    Maximum-Flux-Residual          L2-NORM 
          0                 1           2             4    6     1       0.5351054306E-01       4    6    1         0.2814741323E+01      0.7784198307E+01
          0                 2           2             4    7     1       0.1952941327E-01       4    6    1         0.1037005539E+01      0.2303973073E+01
          0                 3           2             4    7     1       0.7227838028E-02       4    7    1         0.3788089063E+00      0.8180436791E+00
          0                 4           2             4    7     1       0.2673100763E-02       4    7    1         0.1402054911E+00      0.2951519949E+00
          0                 5           2             4    7     1       0.9878999769E-03       4    7    1         0.5184364018E-01      0.1068225959E+00
          0                 6           2             4    7     1       0.3648441488E-03       4    7    1         0.1915704745E-01      0.3874578849E-01
          0                 7           2             4    7     1       0.1346503478E-03       4    7    1         0.7073894428E-02      0.1407428475E-01
          0                 8           1             4    7     1       0.4966199049E-04       4    7    1         0.2610335788E-02      0.5117827879E-02

    ------------------------------------------------
       NWT REQUIRED            8 OUTER ITERATIONS 
       AND A TOTAL OF         15 INNER ITERATIONS.
    ------------------------------------------------

 NO OUTPUT CONTROL FOR STRESS PERIOD   37   TIME STEP    9
 
 SOLVING FOR HEAD 
                                                   Max.-Head-Change                         Max.-Flux-Residual
  Residual-Control   Outer-Iter.   Inner-Iter.     Column Row Layer    Maximum-Head-Change  Column Row Layer    Maximum-Flux-Residual          L2-NORM 
          0                 1           2             4    7     1       0.5215131972E-01       4    6    1         0.2734897828E+01      0.7489655955E+01
          0                 2           2             4    7     1       0.1928735107E-01       4    7    1         0.1012757154E+01      0.2128530024E+01
          0                 3           2             4    7     1       0.7125322404E-02       4    7    1         0.3739890916E+00      0.7497755275E+00
          0                 4           2             4    7     1       0.2629752884E-02       4    7    1         0.1381614925E+00      0.2723225934E+00
          0                 5           2             4    7     1       0.9697260084E-03       4    7    1         0.5097996730E-01      0.9904278053E-01
          0                 6           2             4    7     1       0.3573102702E-03       4    7    1         0.1879561587E-01      0.3604844368E-01
          0                 7           2             4    7     1       0.1315641653E-03       4    7    1         0.6924406097E-02      0.1312696215E-01
          0                 8           1             4    7     1       0.4841216384E-04       4    7    1         0.2549242411E-02      0.4782048004E-02

    ------------------------------------------------
       NWT REQUIRED            8 OUTER ITERATIONS 
       AND A TOTAL OF         15 INNER ITERATIONS.
    ------------------------------------------------

 NO OUTPUT CONTROL FOR STRESS PERIOD   37   TIME STEP   10
 
 SOLVING FOR HEAD 
                                                   Max.-Head-Change                         Max.-Flux-Residual
  Residual-Control   Outer-Iter.   Inner-Iter.     Column Row Layer    Maximum-Head-Change  Column Row Layer    Maximum-Flux-Residual          L2-NORM 
          0                 1           2             4    7     1       0.5148654397E-01       4    7    1         0.2689947113E+01      0.7358501289E+01
          0                 2           2             4    7     1       0.1902122143E-01       4    7    1         0.9996170492E+00      0.2069679653E+01
          0                 3           2             4    7     1       0.7020422899E-02       4    7    1         0.3687459495E+00      0.7287096700E+00
          0                 4           2             4    7     1       0.2588889679E-02       4    7    1         0.1361010961E+00      0.2649274355E+00
          0                 5           2             4    7     1       0.9539536545E-03       4    7    1         0.5017915643E-01      0.9642045855E-01
          0                 6           2             4    7     1       0.3512670588E-03       4    7    1         0.1848707296E-01      0.3511225224E-01
          0                 7           2             4    7     1       0.1292625811E-03       4    7    1         0.6806358280E-02      0.1279121336E-01
          0                 8           1             4    7     1       0.4753996473E-04       4    7    1         0.2504337172E-02      0.4661199889E-02

    ------------------------------------------------
       NWT REQUIRED            8 OUTER ITERATIONS 
       AND A TOTAL OF         15 INNER ITERATIONS.
    ------------------------------------------------

 NO OUTPUT CONTROL FOR STRESS PERIOD   37   TIME STEP   11
 
 SOLVING FOR HEAD 
                                                   Max.-Head-Change                         Max.-Flux-Residual
  Residual-Control   Outer-Iter.   Inner-Iter.     Column Row Layer    Maximum-Head-Change  Column Row Layer    Maximum-Flux-Residual          L2-NORM 
          0                 1           2             4    7     1       0.5076559585E-01       4    7    1         0.2654112067E+01      0.7244919615E+01
          0                 2           2             4    7     1       0.1873835324E-01       4    7    1         0.9854364247E+00      0.2016621914E+01
          0                 3           2             4    7     1       0.6910664795E-02       4    7    1         0.3631944262E+00      0.7094589970E+00
          0                 4           2             4    7     1       0.2546669207E-02       4    7    1         0.1339518267E+00      0.2581105454E+00
          0                 5           2             4    7     1       0.9378252086E-03       4    7    1         0.4935379048E-01      0.9399118160E-01
          0                 6           2             4    7     1       0.3451408748E-03       4    7    1         0.1817221164E-01      0.3424232873E-01
          0                 7           2             4    7     1       0.1269466091E-03       4    7    1         0.6686897920E-02      0.1247845907E-01
          0                 8           1             4    7     1       0.4666789531E-04       4    7    1         0.2459218670E-02      0.4548403341E-02

    ------------------------------------------------
       NWT REQUIRED            8 OUTER ITERATIONS 
       AND A TOTAL OF         15 INNER ITERATIONS.
    ------------------------------------------------

 NO OUTPUT CONTROL FOR STRESS PERIOD   37   TIME STEP   12
 
 SOLVING FOR HEAD 
                                                   Max.-Head-Change                         Max.-Flux-Residual
  Residual-Control   Outer-Iter.   Inner-Iter.     Column Row Layer    Maximum-Head-Change  Column Row Layer    Maximum-Flux-Residual          L2-NORM 
          0                 1           2             4    7     1       0.5000304098E-01       4    7    1         0.2615684304E+01      0.7145616098E+01
          0                 2           2             4    7     1       0.1844349135E-01       4    7    1         0.9704899584E+00      0.1968455431E+01
          0                 3           2             4    7     1       0.6797589450E-02       4    7    1         0.3574239631E+00      0.6917648233E+00
          0                 4           2             4    7     1       0.2503592756E-02       4    7    1         0.1317427184E+00      0.2517972855E+00
          0                 5           2             4    7     1       0.9215028469E-03       4    7    1         0.4851331752E-01      0.9172356301E-01
          0                 6           2             4    7     1       0.3389830095E-03       4    7    1         0.1785408305E-01      0.3342265244E-01
          0                 7           2             4    7     1       0.1246317280E-03       4    7    1         0.6566983683E-02      0.1218058479E-01
          0                 8           1             4    7     1       0.4580021445E-04       4    7    1         0.2414172426E-02      0.4439686838E-02

    ------------------------------------------------
       NWT REQUIRED            8 OUTER ITERATIONS 
       AND A TOTAL OF         15 INNER ITERATIONS.
    ------------------------------------------------

 NO OUTPUT CONTROL FOR STRESS PERIOD   37   TIME STEP   13
 
 SOLVING FOR HEAD 
                                                   Max.-Head-Change                         Max.-Flux-Residual
  Residual-Control   Outer-Iter.   Inner-Iter.     Column Row Layer    Maximum-Head-Change  Column Row Layer    Maximum-Flux-Residual          L2-NORM 
          0                 1           2             4    7     1       0.4891171314E-01       4    7    1         0.2575385231E+01      0.6800433576E+01
          0                 2           2             4    7     1       0.1788653037E-01       4    7    1         0.9476278365E+00      0.1783806988E+01
          0                 3           2             4    7     1       0.6534984202E-02       4    7    1         0.3459867707E+00      0.6189909686E+00
          0                 4           2             4    7     1       0.2385788082E-02       4    7    1         0.1264159001E+00      0.2241884461E+00
          0                 5           2             4    7     1       0.8704426297E-03       4    7    1         0.4614334118E-01      0.8129848156E-01
          0                 6           2             4    7     1       0.3174041589E-03       4    7    1         0.1683297895E-01      0.2949497169E-01
          0                 7           1             4    7     1       0.1156871482E-03       4    7    1         0.6137400699E-02      0.1070332280E-01
          0                 8           1             4    7     1       0.4214902729E-04       4    7    1         0.2236740225E-02      0.3884793071E-02

    ------------------------------------------------
       NWT REQUIRED            8 OUTER ITERATIONS 
       AND A TOTAL OF         14 INNER ITERATIONS.
    ------------------------------------------------

 NO OUTPUT CONTROL FOR STRESS PERIOD   37   TIME STEP   14
 
 SOLVING FOR HEAD 
                                                   Max.-Head-Change                         Max.-Flux-Residual
  Residual-Control   Outer-Iter.   Inner-Iter.     Column Row Layer    Maximum-Head-Change  Column Row Layer    Maximum-Flux-Residual          L2-NORM 
          0                 1           2             4    7     1       0.4698140612E-01       4    7    1         0.2506570126E+01      0.6428693395E+01
          0                 2           2             4    7     1       0.1691006845E-01       4    7    1         0.9069434713E+00      0.1572175554E+01
          0                 3           2             4    7     1       0.6088629870E-02       4    7    1         0.3259952952E+00      0.5344098190E+00
          0                 4           2             4    6     1       0.2199778383E-02       4    7    1         0.1174170061E+00      0.1918330345E+00
          0                 5           2             4    6     1       0.7992647890E-03       4    6    1         0.4250474292E-01      0.6901548839E-01
          0                 6           2             4    6     1       0.2902931540E-03       4    6    1         0.1544243788E-01      0.2485057672E-01
          0                 7           1             4    6     1       0.1053966984E-03       4    6    1         0.5608235632E-02      0.8952834439E-02
          0                 8           1             4    6     1       0.3825343499E-04       4    6    1         0.2036025500E-02      0.3226781900E-02

    ------------------------------------------------
       NWT REQUIRED            8 OUTER ITERATIONS 
       AND A TOTAL OF         14 INNER ITERATIONS.
    ------------------------------------------------

 NO OUTPUT CONTROL FOR STRESS PERIOD   37   TIME STEP   15
 
 SOLVING FOR HEAD 
                                                   Max.-Head-Change                         Max.-Flux-Residual
  Residual-Control   Outer-Iter.   Inner-Iter.     Column Row Layer    Maximum-Head-Change  Column Row Layer    Maximum-Flux-Residual          L2-NORM 
          0                 1           2             4    6     1       0.4458620836E-01       4    7    1         0.2386915774E+01      0.6273604071E+01
          0                 2           2             4    6     1       0.1620271611E-01       4    6    1         0.8648212425E+00      0.1484571742E+01
          0                 3           2             4    6     1       0.5884165620E-02       4    6    1         0.3128365985E+00      0.4992741754E+00
          0                 4           2             4    6     1       0.2135656686E-02       4    6    1         0.1136821616E+00      0.1785821719E+00
          0                 5           2             4    6     1       0.7747456531E-03       4    6    1         0.4125234062E-01      0.6411348745E-01
          0                 6           2             4    6     1       0.2809278625E-03       4    6    1         0.1496355545E-01      0.2305489391E-01
          0                 7           1             4    6     1       0.1018265912E-03       4    6    1         0.5425374215E-02      0.8299484432E-02
          0                 8           1             4    6     1       0.3689588126E-04       4    6    1         0.1966348246E-02      0.2990275935E-02

    ------------------------------------------------
       NWT REQUIRED            8 OUTER ITERATIONS 
       AND A TOTAL OF         14 INNER ITERATIONS.
    ------------------------------------------------

 NO OUTPUT CONTROL FOR STRESS PERIOD   37   TIME STEP   16
 
 SOLVING FOR HEAD 
                                                   Max.-Head-Change                         Max.-Flux-Residual
  Residual-Control   Outer-Iter.   Inner-Iter.     Column Row Layer    Maximum-Head-Change  Column Row Layer    Maximum-Flux-Residual          L2-NORM 
          0                 1           2             3    7     1       0.4288816491E-01       4    6    1         0.2276861683E+01      0.5697956134E+01
          0                 2           2             4    6     1       0.1532337142E-01       4    6    1         0.8286363275E+00      0.1163916620E+01
          0                 3           2             4    6     1       0.5476570028E-02       4    6    1         0.2947892288E+00      0.3738199895E+00
          0                 4           2             4    6     1       0.1957201011E-02       4    6    1         0.1054440401E+00      0.1324147898E+00
          0                 5           2             4    6     1       0.6994235615E-03       4    6    1         0.3767921585E-01      0.4709988256E-01
          0                 6           2             4    6     1       0.2499351755E-03       4    6    1         0.1346501923E-01      0.1677084938E-01
          0                 7           1             4    6     1       0.8930993185E-04       4    6    1         0.4811604354E-02      0.5975152232E-02

    ------------------------------------------------
       NWT REQUIRED            7 OUTER ITERATIONS 
       AND A TOTAL OF         13 INNER ITERATIONS.
    ------------------------------------------------

 NO OUTPUT CONTROL FOR STRESS PERIOD   37   TIME STEP   17
 
 SOLVING FOR HEAD 
                                                   Max.-Head-Change                         Max.-Flux-Residual
  Residual-Control   Outer-Iter.   Inner-Iter.     Column Row Layer    Maximum-Head-Change  Column Row Layer    Maximum-Flux-Residual          L2-NORM 
          0                 1           2             3    7     1       0.4224491552E-01       4    6    1         0.2169399086E+01      0.5345227076E+01
          0                 2           2             4    6     1       0.1414765541E-01       4    6    1         0.7758139825E+00      0.9260155540E+00
          0                 3           2             4    6     1       0.4972236039E-02       4    6    1         0.2711032130E+00      0.2761433787E+00
          0                 4           2             4    6     1       0.1748895490E-02       4    6    1         0.9538634189E-01      0.9604088126E-01
          0                 5           2             4    6     1       0.6155695623E-03       4    6    1         0.3355247858E-01      0.3369873484E-01
          0                 6           2             4    6     1       0.2167966204E-03       4    6    1         0.1181135692E-01      0.1184758560E-01
          0                 7           1             4    6     1       0.7639450271E-04       4    6    1         0.4160276196E-02      0.4171130405E-02

    ------------------------------------------------
       NWT REQUIRED            7 OUTER ITERATIONS 
       AND A TOTAL OF         13 INNER ITERATIONS.
    ------------------------------------------------

 NO OUTPUT CONTROL FOR STRESS PERIOD   37   TIME STEP   18
 
 SOLVING FOR HEAD 
                                                   Max.-Head-Change                         Max.-Flux-Residual
  Residual-Control   Outer-Iter.   Inner-Iter.     Column Row Layer    Maximum-Head-Change  Column Row Layer    Maximum-Flux-Residual          L2-NORM 
          0                 1           2             3    7     1       0.4158358453E-01       4    6    1         0.2019635127E+01      0.5274302496E+01
          0                 2           2             4    6     1       0.1308025242E-01       4    6    1         0.7198577730E+00      0.8985965325E+00
          0                 3           2             4    6     1       0.4580101738E-02       4    6    1         0.2503993527E+00      0.2625230607E+00
          0                 4           2             4    6     1       0.1605863388E-02       4    6    1         0.8779494548E-01      0.9006808863E-01
          0                 5           2             4    6     1       0.5636921496E-03       4    6    1         0.3078760694E-01      0.3129319723E-01
          0                 6           2             4    6     1       0.1980658464E-03       4    6    1         0.1080989323E-01      0.1091973336E-01
          0                 7           1             4    6     1       0.6965501654E-04       4    6    1         0.3799033324E-02      0.3822655947E-02

    ------------------------------------------------
       NWT REQUIRED            7 OUTER ITERATIONS 
       AND A TOTAL OF         13 INNER ITERATIONS.
    ------------------------------------------------

 NO OUTPUT CONTROL FOR STRESS PERIOD   37   TIME STEP   19
 
 SOLVING FOR HEAD 
                                                   Max.-Head-Change                         Max.-Flux-Residual
  Residual-Control   Outer-Iter.   Inner-Iter.     Column Row Layer    Maximum-Head-Change  Column Row Layer    Maximum-Flux-Residual          L2-NORM 
          0                 1           2             3    7     1       0.4095404945E-01       4    6    1         0.1871276290E+01      0.5123417593E+01
          0                 2           2             4    6     1       0.1216460406E-01       4    6    1         0.6690457770E+00      0.8421101968E+00
          0                 3           2             4    6     1       0.4264359897E-02       4    6    1         0.2329199983E+00      0.2421977799E+00
          0                 4           2             4    6     1       0.1496655429E-02       4    6    1         0.8176335006E-01      0.8334386820E-01
          0                 5           2             4    6     1       0.5258163705E-03       4    6    1         0.2869991477E-01      0.2904767935E-01
          0                 6           2             4    6     1       0.1848972598E-03       4    6    1         0.1008524055E-01      0.1016147018E-01
          0                 7           1             4    6     1       0.6506779980E-04       4    6    1         0.3546976321E-02      0.3564291435E-02

    ------------------------------------------------
       NWT REQUIRED            7 OUTER ITERATIONS 
       AND A TOTAL OF         13 INNER ITERATIONS.
    ------------------------------------------------

 NO OUTPUT CONTROL FOR STRESS PERIOD   37   TIME STEP   20
 
 SOLVING FOR HEAD 
                                                   Max.-Head-Change                         Max.-Flux-Residual
  Residual-Control   Outer-Iter.   Inner-Iter.     Column Row Layer    Maximum-Head-Change  Column Row Layer    Maximum-Flux-Residual          L2-NORM 
          0                 1           2             3    7     1       0.4035189269E-01       4    5    1         0.1649600427E+01      0.4831115727E+01
          0                 2           2             4    6     1       0.6842694311E-02       4    6    1         0.3782996067E+00      0.6208859924E+00
          0                 3           2             4    6     1       0.2081561614E-02       4    6    1         0.1137942053E+00      0.1278822592E+00
          0                 4           2             4    6     1       0.6336523322E-03       4    6    1         0.3470070680E-01      0.3744341929E-01
          0                 5           2             4    6     1       0.1930246863E-03       4    6    1         0.1056193040E-01      0.1131816938E-01
          0                 6           1             4    6     1       0.5884002694E-04       4    6    1         0.3217986765E-02      0.3428030025E-02

    ------------------------------------------------
       NWT REQUIRED            6 OUTER ITERATIONS 
       AND A TOTAL OF         11 INNER ITERATIONS.
    ------------------------------------------------

 NO OUTPUT CONTROL FOR STRESS PERIOD   37   TIME STEP   21
 
 SOLVING FOR HEAD 
                                                   Max.-Head-Change                         Max.-Flux-Residual
  Residual-Control   Outer-Iter.   Inner-Iter.     Column Row Layer    Maximum-Head-Change  Column Row Layer    Maximum-Flux-Residual          L2-NORM 
          0                 1           2             3    7     1       0.3976307920E-01       4    5    1         0.1631285769E+01      0.4683506881E+01
          0                 2           2             4    6     1      -0.4998116469E-02       4    6    1        -0.2672831359E+00      0.5493962287E+00
          0                 3           2             4    6     1      -0.1545739294E-02       4    6    1        -0.8385422400E-01      0.1010429616E+00
          0                 4           2             4    6     1      -0.4782904505E-03       4    6    1        -0.2585652950E-01      0.2965033994E-01
          0                 5           2             4    6     1      -0.1480700206E-03       4    6    1        -0.8004459107E-02      0.9190042914E-02
          0                 6           1             4    6     1      -0.4586244570E-04       4    6    1        -0.2478303967E-02      0.2852597272E-02

    ------------------------------------------------
       NWT REQUIRED            6 OUTER ITERATIONS 
       AND A TOTAL OF         11 INNER ITERATIONS.
    ------------------------------------------------

 NO OUTPUT CONTROL FOR STRESS PERIOD   37   TIME STEP   22
 
 SOLVING FOR HEAD 
                                                   Max.-Head-Change                         Max.-Flux-Residual
  Residual-Control   Outer-Iter.   Inner-Iter.     Column Row Layer    Maximum-Head-Change  Column Row Layer    Maximum-Flux-Residual          L2-NORM 
          0                 1           2             3    7     1       0.3917673778E-01       4    5    1         0.1568108389E+01      0.4576047866E+01
          0                 2           2             4    6     1      -0.4497823894E-02       4    6    1        -0.2403552831E+00      0.5263033798E+00
          0                 3           2             4    6     1      -0.1390685212E-02       4    6    1        -0.7547165677E-01      0.9214566217E-01
          0                 4           2             4    6     1      -0.4302020329E-03       4    6    1        -0.2326084584E-01      0.2679594153E-01
          0                 5           2             4    6     1      -0.1331458701E-03       4    6    1        -0.7199219409E-02      0.8298552359E-02
          0                 6           1             4    6     1      -0.4122771312E-04       4    6    1        -0.2228359672E-02      0.2574074126E-02

    ------------------------------------------------
       NWT REQUIRED            6 OUTER ITERATIONS 
       AND A TOTAL OF         11 INNER ITERATIONS.
    ------------------------------------------------

 NO OUTPUT CONTROL FOR STRESS PERIOD   37   TIME STEP   23
 
 SOLVING FOR HEAD 
                                                   Max.-Head-Change                         Max.-Flux-Residual
  Residual-Control   Outer-Iter.   Inner-Iter.     Column Row Layer    Maximum-Head-Change  Column Row Layer    Maximum-Flux-Residual          L2-NORM 
          0                 1           2             3    7     1       0.3859845218E-01       4    5    1         0.1509194939E+01      0.4477278833E+01
          0                 2           2             4    6     1      -0.4033795852E-02       4    6    1        -0.2153927621E+00      0.5060737880E+00
          0                 3           2             4    6     1      -0.1246776513E-02       4    6    1        -0.6769539884E-01      0.8426357578E-01
          0                 4           2             4    6     1      -0.3855417042E-03       4    6    1        -0.2085136200E-01      0.2425108225E-01
          0                 5           2             4    6     1      -0.1192769530E-03       4    6    1        -0.6451267094E-02      0.7502685928E-02
          0                 6           1             4    6     1      -0.3691805248E-04       4    6    1        -0.1996052862E-02      0.2325160006E-02

    ------------------------------------------------
       NWT REQUIRED            6 OUTER ITERATIONS 
       AND A TOTAL OF         11 INNER ITERATIONS.
    ------------------------------------------------

 NO OUTPUT CONTROL FOR STRESS PERIOD   37   TIME STEP   24
 
 SOLVING FOR HEAD 
                                                   Max.-Head-Change                         Max.-Flux-Residual
  Residual-Control   Outer-Iter.   Inner-Iter.     Column Row Layer    Maximum-Head-Change  Column Row Layer    Maximum-Flux-Residual          L2-NORM 
          0                 1           2             3    7     1       0.3802854936E-01       4    5    1         0.1454251366E+01      0.4386346910E+01
          0                 2           2             3    7     1      -0.3704249244E-02       4    6    1        -0.1922342946E+00      0.4884377049E+00
          0                 3           2             4    6     1      -0.1113109815E-02       4    6    1        -0.6047606225E-01      0.7736548794E-01
          0                 4           2             4    6     1      -0.3440334486E-03       4    6    1        -0.1861301043E-01      0.2201001858E-01
          0                 5           1             4    6     1      -0.1063788369E-03       4    6    1        -0.5755997149E-02      0.6801100268E-02
          0                 6           1             4    6     1      -0.3290765121E-04       4    6    1        -0.1779976117E-02      0.2105573229E-02

    ------------------------------------------------
       NWT REQUIRED            6 OUTER ITERATIONS 
       AND A TOTAL OF         10 INNER ITERATIONS.
    ------------------------------------------------

 NO OUTPUT CONTROL FOR STRESS PERIOD   37   TIME STEP   25
 
 SOLVING FOR HEAD 
                                                   Max.-Head-Change                         Max.-Flux-Residual
  Residual-Control   Outer-Iter.   Inner-Iter.     Column Row Layer    Maximum-Head-Change  Column Row Layer    Maximum-Flux-Residual          L2-NORM 
          0                 1           2             3    7     1       0.3746842531E-01       4    5    1         0.1402985296E+01      0.4302486512E+01
          0                 2           2             3    7     1      -0.3649365940E-02       4    6    1        -0.1707380989E+00      0.4731462636E+00
          0                 3           2             4    6     1      -0.9888938560E-03       4    6    1        -0.5377031272E-01      0.7142939380E-01
          0                 4           2             4    6     1      -0.3054360571E-03       4    6    1        -0.1653260096E-01      0.2007136795E-01
          0                 5           1             4    6     1      -0.9437798394E-04       4    6    1        -0.5109387543E-02      0.6193885284E-02

    ------------------------------------------------
       NWT REQUIRED            5 OUTER ITERATIONS 
       AND A TOTAL OF          9 INNER ITERATIONS.
    ------------------------------------------------

 NO OUTPUT CONTROL FOR STRESS PERIOD   37   TIME STEP   26
 
 SOLVING FOR HEAD 
                                                   Max.-Head-Change                         Max.-Flux-Residual
  Residual-Control   Outer-Iter.   Inner-Iter.     Column Row Layer    Maximum-Head-Change  Column Row Layer    Maximum-Flux-Residual          L2-NORM 
          0                 1           2             3    7     1       0.3691816690E-01       4    5    1         0.1355164901E+01      0.4225032279E+01
          0                 2           2             3    7     1      -0.3595310499E-02       4    6    1        -0.1507886021E+00      0.4599756915E+00
          0                 3           2             4    6     1      -0.8734822995E-03       4    6    1        -0.4754278579E-01      0.6644100389E-01
          0                 4           2             4    6     1      -0.2695522438E-03       4    6    1        -0.1459935603E-01      0.1843768695E-01
          0                 5           1             4    6     1      -0.8321409882E-04       4    6    1        -0.4508147545E-02      0.5682401541E-02

    ------------------------------------------------
       NWT REQUIRED            5 OUTER ITERATIONS 
       AND A TOTAL OF          9 INNER ITERATIONS.
    ------------------------------------------------

 NO OUTPUT CONTROL FOR STRESS PERIOD   37   TIME STEP   27
 
 SOLVING FOR HEAD 
                                                   Max.-Head-Change                         Max.-Flux-Residual
  Residual-Control   Outer-Iter.   Inner-Iter.     Column Row Layer    Maximum-Head-Change  Column Row Layer    Maximum-Flux-Residual          L2-NORM 
          0                 1           2             3    7     1       0.3637836392E-01       4    5    1         0.1310511621E+01      0.4153350795E+01
          0                 2           2             3    7     1      -0.3542161985E-02       4    6    1        -0.1322432356E+00      0.4486943958E+00
          0                 3           2             4    6     1      -0.7660739158E-03       4    6    1        -0.4174973312E-01      0.6236915043E-01
          0                 4           2             4    6     1      -0.2361367973E-03       4    6    1        -0.1279990627E-01      0.1710692176E-01
          0                 5           1             4    6     1      -0.7281208045E-04       4    6    1        -0.3948184490E-02      0.5266625475E-02

    ------------------------------------------------
       NWT REQUIRED            5 OUTER ITERATIONS 
       AND A TOTAL OF          9 INNER ITERATIONS.
    ------------------------------------------------

 NO OUTPUT CONTROL FOR STRESS PERIOD   37   TIME STEP   28
 
 SOLVING FOR HEAD 
                                                   Max.-Head-Change                         Max.-Flux-Residual
  Residual-Control   Outer-Iter.   Inner-Iter.     Column Row Layer    Maximum-Head-Change  Column Row Layer    Maximum-Flux-Residual          L2-NORM 
          0                 1           2             3    7     1       0.3584907959E-01       4    5    1         0.1268795417E+01      0.4086891166E+01
          0                 2           2             3    7     1      -0.3489945101E-02       4    5    1        -0.1268798143E+00      0.4391007850E+00
          0                 3           2             4    6     1      -0.6660391332E-03       4    6    1        -0.3635677521E-01      0.5918317022E-01
          0                 4           2             4    6     1      -0.2049970707E-03       4    6    1        -0.1112374699E-01      0.1607733920E-01
          0                 5           1             4    6     1      -0.6311293176E-04       4    6    1        -0.3426283020E-02      0.4946572567E-02

    ------------------------------------------------
       NWT REQUIRED            5 OUTER ITERATIONS 
       AND A TOTAL OF          9 INNER ITERATIONS.
    ------------------------------------------------

 NO OUTPUT CONTROL FOR STRESS PERIOD   37   TIME STEP   29
 
 SOLVING FOR HEAD 
                                                   Max.-Head-Change                         Max.-Flux-Residual
  Residual-Control   Outer-Iter.   Inner-Iter.     Column Row Layer    Maximum-Head-Change  Column Row Layer    Maximum-Flux-Residual          L2-NORM 
          0                 1           2             3    7     1       0.3533101638E-01       4    5    1         0.1229825804E+01      0.4025179243E+01
          0                 2           2             3    7     1      -0.3438744918E-02       4    5    1        -0.1229828763E+00      0.4310093279E+00
          0                 3           2             5    8     1       0.6051732006E-03       5    8    1         0.3276008982E-01      0.5683873839E-01
          0                 4           2             5    8     1       0.1854286379E-03       5    8    1         0.1011115639E-01      0.1534130560E-01
          0                 5           1             5    8     1       0.5684615859E-04       5    8    1         0.3095468580E-02      0.4720264006E-02

    ------------------------------------------------
       NWT REQUIRED            5 OUTER ITERATIONS 
       AND A TOTAL OF          9 INNER ITERATIONS.
    ------------------------------------------------

 NO OUTPUT CONTROL FOR STRESS PERIOD   37   TIME STEP   30



 STREAM LISTING     PERIOD     37   STEP       30

 LAYER ROW COL. STREAM  RCH.  FLOW INTO     FLOW TO   FLOW OUT OF   OVRLND.     DIRECT     STREAM       STREAM     STREAM     STREAM   STREAMBED  STREAMBED
                SEG.NO.  NO.  STRM. RCH.    AQUIFER    STRM. RCH.    RUNOFF     PRECIP       ET          HEAD       DEPTH      WIDTH   CONDCTNC.   GRADIENT

   1    1    1     1     1    8.6247E+00  1.3546E-01   8.4893E+00  0.000E+00  0.000E+00  0.000E+00  1.09390E+03  8.549E-01  7.809E+00  3.514E-02  1.285E+00
   1    2    2     1     2    8.4893E+00  2.0809E-01   8.2812E+00  0.000E+00  0.000E+00  0.000E+00  1.08891E+03  8.492E-01  7.723E+00  5.406E-02  1.283E+00
   1    3    3     1     3    8.2812E+00  1.7583E-01   8.1054E+00  0.000E+00  0.000E+00  0.000E+00  1.08326E+03  8.427E-01  7.626E+00  4.576E-02  1.281E+00
   1    3    4     1     4    8.1054E+00  1.6058E-01   7.9448E+00  0.000E+00  0.000E+00  0.000E+00  1.07824E+03  8.369E-01  7.541E+00  4.185E-02  1.279E+00
   1    4    5     2     1    5.9448E+00  2.7323E-01   5.6716E+00  0.000E+00  0.000E+00  0.000E+00  1.07244E+03  5.030E-01  1.200E+01  7.800E-02  1.168E+00
   1    5    6     2     2    5.6716E+00  2.0942E-01   5.4621E+00  0.000E+00  0.000E+00  0.000E+00  1.06700E+03  4.904E-01  1.200E+01  6.000E-02  1.163E+00
   1    6    6     2     3    5.4621E+00  2.0875E-01   5.2534E+00  0.000E+00  0.000E+00  0.000E+00  1.06227E+03  4.792E-01  1.200E+01  6.000E-02  1.160E+00
   1    7    6     2     4    5.2534E+00  2.0808E-01   5.0453E+00  0.000E+00  0.000E+00  0.000E+00  1.05754E+03  4.679E-01  1.200E+01  6.000E-02  1.156E+00
   1    8    6     2     5    5.0453E+00  2.0739E-01   4.8379E+00  0.000E+00  0.000E+00  0.000E+00  1.05282E+03  4.565E-01  1.200E+01  6.000E-02  1.152E+00
   1    3    5     3     1    2.0000E+00  2.8252E-01   1.7175E+00  0.000E+00  0.000E+00  0.000E+00  1.07555E+03  1.909E+00  9.636E+00  7.227E-02  1.955E+00
   1    3    6     3     2    1.7175E+00  2.4905E-01   1.4684E+00  0.000E+00  0.000E+00  0.000E+00  1.07264E+03  1.727E+00  8.909E+00  6.682E-02  1.864E+00
   1    3    7     3     3    1.4684E+00  1.9718E-01   1.2712E+00  0.000E+00  0.000E+00  0.000E+00  1.06987E+03  1.555E+00  8.218E+00  5.547E-02  1.777E+00
   1    4    8     3     4    1.2712E+00  2.2567E-01   1.0456E+00  0.000E+00  0.000E+00  0.000E+00  1.06682E+03  1.364E+00  7.455E+00  6.709E-02  1.682E+00
   1    5    8     3     5    1.0456E+00  1.5790E-01   8.8768E-01  0.000E+00  0.000E+00  0.000E+00  1.06362E+03  1.164E+00  6.655E+00  4.991E-02  1.582E+00
   1    6    8     3     6    8.8768E-01  5.5980E-02   8.3170E-01  0.000E+00  0.000E+00  0.000E+00  1.06158E+03  1.036E+00  6.145E+00  1.844E-02  1.518E+00
   1    5   10     4     1    1.0000E+01  9.0919E-02   9.9091E+00  0.000E+00  0.000E+00  0.000E+00  1.07836E+03  6.368E-01  1.000E+01  2.500E-02  1.212E+00
   1    5    9     4     2    9.9091E+00  1.8158E-01   9.7275E+00  0.000E+00  0.000E+00  0.000E+00  1.07154E+03  6.315E-01  1.000E+01  5.000E-02  1.211E+00
   1    6    8     4     3    9.7275E+00  1.2689E-01   9.6006E+00  0.000E+00  0.000E+00  0.000E+00  1.06381E+03  6.256E-01  1.000E+01  3.500E-02  1.209E+00
   1    6    8     5     1    1.0432E+01  2.2686E-01   1.0205E+01  0.000E+00  0.000E+00  0.000E+00  1.05868E+03  6.790E-01  1.542E+01  6.166E-02  1.226E+00
   1    7    7     5     2    1.0205E+01  2.7894E-01   9.9265E+00  0.000E+00  0.000E+00  0.000E+00  1.05417E+03  6.732E-01  1.519E+01  7.594E-02  1.224E+00
   1    8    7     5     3    9.9265E+00  1.9221E-01   9.7343E+00  0.000E+00  0.000E+00  0.000E+00  1.04992E+03  6.676E-01  1.497E+01  5.241E-02  1.223E+00
   1    8    6     5     4    9.7343E+00  1.3577E-01   9.5985E+00  0.000E+00  0.000E+00  0.000E+00  1.04691E+03  6.637E-01  1.482E+01  3.706E-02  1.221E+00
   1    9    6     6     1    1.4436E+01  2.3244E-01   1.4204E+01  0.000E+00  0.000E+00  0.000E+00  1.04360E+03  8.741E-01  1.200E+01  6.000E-02  1.291E+00
   1   10    7     6     2    1.4204E+01  2.3193E-01   1.3972E+01  0.000E+00  0.000E+00  0.000E+00  1.03905E+03  8.655E-01  1.200E+01  6.000E-02  1.289E+00
   1   11    7     6     3    1.3972E+01  2.3142E-01   1.3741E+01  0.000E+00  0.000E+00  0.000E+00  1.03449E+03  8.570E-01  1.200E+01  6.000E-02  1.286E+00
   1   12    7     6     4    1.3741E+01  2.3090E-01   1.3510E+01  0.000E+00  0.000E+00  0.000E+00  1.02994E+03  8.484E-01  1.200E+01  6.000E-02  1.283E+00
   1   13    7     6     5    1.3510E+01  1.1337E-02   1.3498E+01  0.000E+00  0.000E+00  0.000E+00  1.02675E+03  8.438E-01  1.200E+01  2.400E-02  1.575E-01
   1   14    9     7     1    1.5000E+02  1.4190E+00   1.4858E+02  0.000E+00  0.000E+00  0.000E+00  1.03987E+03  2.287E+00  5.529E+01  5.593E-01  8.457E-01
   1   13    8     7     2    1.4858E+02  2.0913E+00   1.4649E+02  0.000E+00  0.000E+00  0.000E+00  1.03478E+03  2.278E+00  5.525E+01  6.147E-01  1.134E+00
   1   13    7     7     3    1.4649E+02  1.9018E+00   1.4459E+02  0.000E+00  0.000E+00  0.000E+00  1.02969E+03  2.267E+00  5.520E+01  5.583E-01  1.135E+00
   1   13    6     8     1    1.5809E+02  1.2726E+00   1.5681E+02  0.000E+00  0.000E+00  0.000E+00  1.02474E+03  2.869E+00  4.159E+01  4.239E-01  1.001E+00
   1   13    5     8     2    1.5681E+02  5.1111E-01   1.5630E+02  0.000E+00  0.000E+00  0.000E+00  1.01849E+03  2.862E+00  4.150E+01  4.229E-01  4.028E-01
   1   13    4     8     3    1.5630E+02 -1.2758E+00   1.5758E+02  0.000E+00  0.000E+00  0.000E+00  1.01224E+03  2.865E+00  4.154E+01  4.233E+00 -1.005E-01
   1   13    3     8     4    1.5758E+02 -3.0810E+00   1.6066E+02  0.000E+00  0.000E+00  0.000E+00  1.00600E+03  2.880E+00  4.176E+01  4.255E+00 -2.413E-01
   1   13    2     8     5    1.6066E+02 -2.4426E+00   1.6310E+02  0.000E+00  0.000E+00  0.000E+00  9.99773E+02  2.899E+00  4.203E+01  4.283E+00 -1.901E-01
   1   13    1     8     6    1.6310E+02 -1.9502E+00   1.6505E+02  0.000E+00  0.000E+00  0.000E+00  9.94788E+02  2.913E+00  4.224E+01  2.583E+00 -2.517E-01
   1    8    6     9     1    0.0000E+00  0.0000E+00   0.0000E+00  0.000E+00  0.000E+00  0.000E+00  1.07875E+03  0.000E+00  4.000E+00  0.000E+00  1.000E+00
   1    8    5     9     2    0.0000E+00  0.0000E+00   0.0000E+00  0.000E+00  0.000E+00  0.000E+00  1.07825E+03  0.000E+00  4.000E+00  0.000E+00  1.000E+00





UNSATURATED ZONE PACKAGE VOLUMETRIC BUDGET FOR  TIME STEP    30 STRESS PERIOD   37
  ------------------------------------------------------------------------------



     CUMULATIVE VOLUMES      L**3       RATES FOR THIS TIME STEP      L**3/T
     ------------------                 ------------------------

           IN:                                      IN:
           ---                                      ---
        INFILTRATION =  9911316635.6455          INFILTRATION =           0.8475

          OUT:                                     OUT:
          ----                                     ----
              UZF ET =  1285996545.8718                UZF ET =           0.7950
        UZF RECHARGE =  8136394333.2888          UZF RECHARGE =          12.7512

            IN - OUT =   488925756.4849              IN - OUT =         -12.6987

          STORAGE:                                 STORAGE:
          --------                                 --------
      STORAGE CHANGE =   490049628.5154        STORAGE CHANGE =         -12.6987

 PERCENT DISCREPANCY IS DIFFERENCE BETWEEN IN-OUT MINUS CHANGE IN STORAGE
 DIVIDED BY THE AVERAGE OF IN AND OUT TIMES 100

 PERCENT DISCREPANCY =          -0.00     PERCENT DISCREPANCY =           0.00






1
  VOLUMETRIC BUDGET FOR AGRICULTURAL FIELDS AT  END OF TIME STEP   30, STRESS PERIOD  37
  ------------------------------------------------------------------------------

     CUMULATIVE VOLUMES      L**3       RATES FOR THIS TIME STEP      L**3/T
     ------------------                 ------------------------

           IN:                                      IN:
           ---                                      ---
               AG WELLS  =  9374535680.0000                 AG WELLS  =           0.0000
      DIVERSION SEGMENTS =   456493472.0000        DIVERSION SEGMENTS =           0.0000
           GW IRRIGATION =           0.0000             GW IRRIGATION =           0.0000
           SW IRRIGATION =           0.0000             SW IRRIGATION =           0.0000
        SYSTEM LOSSES GW =           0.0000          SYSTEM LOSSES GW =           0.0000
        SYSTEM LOSSES SW =           0.0000          SYSTEM LOSSES SW =           0.0000

                TOTAL IN =  9831028736.0000                  TOTAL IN =           0.0000

          OUT:                                     OUT:
          ----                                     ----
               AG WELLS  =           0.0000                 AG WELLS  =           0.0000
      DIVERSION SEGMENTS =           0.0000        DIVERSION SEGMENTS =           0.0000
           GW IRRIGATION =  9374535680.0000             GW IRRIGATION =           0.0000
           SW IRRIGATION =   456501856.0000             SW IRRIGATION =           0.0000
        SYSTEM LOSSES GW =           0.0000          SYSTEM LOSSES GW =           0.0000
        SYSTEM LOSSES SW =           0.0000          SYSTEM LOSSES SW =           0.0000

               TOTAL OUT =  9831037952.0000                 TOTAL OUT =           0.0000

                IN - OUT =       -9216.0000                  IN - OUT =           0.0000

     PERCENT DISCREPANCY =          -0.00         PERCENT DISCREPANCY =           0.00



1
  VOLUMETRIC BUDGET FOR ENTIRE MODEL AT END OF TIME STEP   30, STRESS PERIOD  37
  ------------------------------------------------------------------------------

     CUMULATIVE VOLUMES      L**3       RATES FOR THIS TIME STEP      L**3/T
     ------------------                 ------------------------

           IN:                                      IN:
           ---                                      ---
             STORAGE     =  8170284032.0000               STORAGE     =           3.8911
       CONSTANT HEAD     =           0.0000         CONSTANT HEAD     =           0.0000
     HEAD DEP BOUNDS     =    27406522.0000       HEAD DEP BOUNDS     =           0.2914
      STREAM LEAKAGE     =  1163145600.0000        STREAM LEAKAGE     =          12.3221
        UZF RECHARGE     =  8136393728.0000          UZF RECHARGE     =          12.7512
               GW ET     =           0.0000                 GW ET     =           0.0000
     SURFACE LEAKAGE     =           0.0000       SURFACE LEAKAGE     =           0.0000
           AG WELLS      =           0.0000             AG WELLS      =           0.0000

                TOTAL IN = 17497229312.0000                  TOTAL IN =          29.2558

          OUT:                                     OUT:
          ----                                     ----
             STORAGE     =  7202270208.0000               STORAGE     =          20.2188
       CONSTANT HEAD     =           0.0000         CONSTANT HEAD     =           0.0000
     HEAD DEP BOUNDS     =    27271390.0000       HEAD DEP BOUNDS     =           0.2866
      STREAM LEAKAGE     =   893014208.0000        STREAM LEAKAGE     =           8.7497
        UZF RECHARGE     =           0.0000          UZF RECHARGE     =           0.0000
               GW ET     =           0.0000                 GW ET     =           0.0000
     SURFACE LEAKAGE     =           0.0000       SURFACE LEAKAGE     =           0.0000
           AG WELLS      =  9374535680.0000             AG WELLS      =           0.0000

               TOTAL OUT = 17497092096.0000                 TOTAL OUT =          29.2551

                IN - OUT =      137216.0000                  IN - OUT =       7.4577E-04

     PERCENT DISCREPANCY =           0.00         PERCENT DISCREPANCY =           0.00






         TIME SUMMARY AT END OF TIME STEP   30 IN STRESS PERIOD   37
                    SECONDS     MINUTES      HOURS       DAYS        YEARS
                    -----------------------------------------------------------
   TIME STEP LENGTH  87667.      1461.1      24.352      1.0147     2.77799E-03
 STRESS PERIOD TIME 2.63000E+06  43833.      730.56      30.440     8.33397E-02
         TOTAL TIME 9.47660E+07 1.57943E+06  26324.      1096.8      3.0030    
1
1
                            STRESS PERIOD NO.   38, LENGTH =   2630000.    
                            -----------------------------------------------

                              NUMBER OF TIME STEPS =    30

                               MULTIPLIER FOR DELT =     1.000

                            INITIAL TIME STEP SIZE =   87666.66    

 REUSING NON-PARAMETER GHB CELLS FROM LAST STRESS PERIOD

      2 GHB CELLS

 REUSING STREAM SEGMENT DATA FROM LAST STRESS PERIOD



            AREAL INFILTRATION RATE
 READING ON UNIT   19 WITH FORMAT: (FREE)              

            1           2           3           4           5           6           7           8           9          10
 ........................................................................................................................
   1   1.0000E-10  2.0000E-10   0.000       0.000       0.000       0.000       0.000       0.000       0.000       0.000    
   2   2.0000E-10  1.0000E-10  2.0000E-10   0.000       0.000      8.0000E-10  8.0000E-10  5.0000E-10   0.000       0.000    
   3    0.000      5.0000E-10  1.0000E-10  1.0000E-10  8.0000E-10  8.0000E-10  5.0000E-10  5.0000E-10   0.000       0.000    
   4   8.0000E-10  5.0000E-10  1.0000E-10  1.0000E-10  1.0000E-10  1.0000E-10  1.0000E-10  1.0000E-10  2.0000E-10   0.000    
   5   8.0000E-10  5.0000E-10  1.0000E-10  1.0000E-10  1.0000E-10  1.0000E-10  1.0000E-10  1.0000E-10  1.0000E-10  1.0000E-10
   6   8.0000E-10  5.0000E-10  5.0000E-10  2.0000E-10  2.0000E-10  1.0000E-10  1.0000E-10  1.0000E-10  1.0000E-10  5.0000E-10
   7   8.0000E-10  5.0000E-10  5.0000E-10  2.0000E-10  2.0000E-10  1.0000E-10  1.0000E-10  2.0000E-10  2.0000E-10   0.000    
   8    0.000      5.0000E-10  5.0000E-10  2.0000E-10  2.0000E-10  1.0000E-10  1.0000E-10  2.0000E-10  5.0000E-10   0.000    
   9    0.000      5.0000E-10  5.0000E-10  2.0000E-10  2.0000E-10  1.0000E-10  1.0000E-10  2.0000E-10  5.0000E-10   0.000    
  10    0.000      5.0000E-10  5.0000E-10  2.0000E-10  2.0000E-10  1.0000E-10  1.0000E-10  2.0000E-10  5.0000E-10  8.0000E-10
  11    0.000      1.0000E-10  1.0000E-10  1.0000E-10  1.0000E-10  1.0000E-10  1.0000E-10  2.0000E-10  5.0000E-10   0.000    
  12   1.0000E-10  1.0000E-10  1.0000E-10  1.0000E-10  1.0000E-10  1.0000E-10  1.0000E-10  1.0000E-10  2.0000E-10   0.000    
  13   1.0000E-10  1.0000E-10  2.0000E-10  2.0000E-10  2.0000E-10  2.0000E-10  2.0000E-10  1.0000E-10  1.0000E-10   0.000    
  14    0.000      2.0000E-10  5.0000E-10  5.0000E-10  5.0000E-10  5.0000E-10  5.0000E-10  2.0000E-10  1.0000E-10   0.000    
  15    0.000       0.000      8.0000E-10  8.0000E-10  8.0000E-10  8.0000E-10   0.000       0.000       0.000       0.000    

                  ET RATE =  5.000000E-10

 USING ET EXTINCTION DEPTH FROM PREVIOUS STRESS PERIOD. CURRENT PERIOD IS:      38

 USING EXTINCTION WATER CONTENT FROM PREVIOUS STRESS PERIOD. CURRENT PERIOD IS:      38

 USING AIR ENTRY PRESSURE FROM PREVIOUS STRESS PERIOD. CURRENT PERIOD IS:      38

 USING ROOT PRESSURE HEAD FROM PREVIOUS STRESS PERIOD. CURRENT PERIOD IS:      38

 USING ROOT ACTIVITY FROM PREVIOUS STRESS PERIOD. CURRENT PERIOD IS:      38

 PROCESSING AG STRESS PERIOD DATA

 READING AG STRESS PERIOD DATA

 READING IRRIGATION SEGMENT

 READING IRRIGATION WELL

 READING SUPPLEMENTAL WELL

 END PROCESSING AG STRESS PERIOD DATA OPTIONS
 
 SOLVING FOR HEAD 
                                                   Max.-Head-Change                         Max.-Flux-Residual
  Residual-Control   Outer-Iter.   Inner-Iter.     Column Row Layer    Maximum-Head-Change  Column Row Layer    Maximum-Flux-Residual          L2-NORM 
          0                 1           2             3    7     1       0.3482406091E-01       4    5    1         0.1193397543E+01      0.3967763151E+01
          0                 2           2             3    7     1      -0.3388565106E-02       4    5    1        -0.1193400676E+00      0.4242469083E+00
          0                 3           2             5    8     1       0.6167018406E-03       5    8    1         0.3335230500E-01      0.5527513070E-01
          0                 4           2             5    8     1       0.1892598317E-03       5    8    1         0.1030741133E-01      0.1488284055E-01
          0                 5           1             5    8     1       0.5811410040E-04       5    8    1         0.3160661750E-02      0.4582843567E-02

    ------------------------------------------------
       NWT REQUIRED            5 OUTER ITERATIONS 
       AND A TOTAL OF          9 INNER ITERATIONS.
    ------------------------------------------------

 NO OUTPUT CONTROL FOR STRESS PERIOD   38   TIME STEP    1
 
 SOLVING FOR HEAD 
                                                   Max.-Head-Change                         Max.-Flux-Residual
  Residual-Control   Outer-Iter.   Inner-Iter.     Column Row Layer    Maximum-Head-Change  Column Row Layer    Maximum-Flux-Residual          L2-NORM 
          0                 1           2             3    7     1       0.3432852652E-01       4    5    1         0.1159335541E+01      0.3912302510E+01
          0                 2           2             3    7     1      -0.3339448002E-02       4    5    1        -0.1159338801E+00      0.4184652209E+00
          0                 3           2             5    8     1       0.6275946035E-03       5    8    1         0.3391231645E-01      0.5440380996E-01
          0                 4           2             5    8     1       0.1928787643E-03       5    8    1         0.1049281296E-01      0.1467520016E-01
          0                 5           1             5    8     1       0.5931163570E-04       5    8    1         0.3222239947E-02      0.4525805986E-02

    ------------------------------------------------
       NWT REQUIRED            5 OUTER ITERATIONS 
       AND A TOTAL OF          9 INNER ITERATIONS.
    ------------------------------------------------

 NO OUTPUT CONTROL FOR STRESS PERIOD   38   TIME STEP    2
 
 SOLVING FOR HEAD 
                                                   Max.-Head-Change                         Max.-Flux-Residual
  Residual-Control   Outer-Iter.   Inner-Iter.     Column Row Layer    Maximum-Head-Change  Column Row Layer    Maximum-Flux-Residual          L2-NORM 
          0                 1           2             3    7     1       0.3384417600E-01       4    5    1         0.1127482899E+01      0.3860275897E+01
          0                 2           2             3    7     1      -0.3291382873E-02       5    8    1         0.1157865613E+00      0.4137031752E+00
          0                 3           2             5    8     1       0.6378477708E-03       5    8    1         0.3443951091E-01      0.5414296850E-01
          0                 4           2             5    8     1       0.1962858611E-03       5    8    1         0.1066732870E-01      0.1468517715E-01
          0                 5           1             5    8     1       0.6043937539E-04       5    8    1         0.3280216556E-02      0.4538329440E-02

    ------------------------------------------------
       NWT REQUIRED            5 OUTER ITERATIONS 
       AND A TOTAL OF          9 INNER ITERATIONS.
    ------------------------------------------------

 NO OUTPUT CONTROL FOR STRESS PERIOD   38   TIME STEP    3
 
 SOLVING FOR HEAD 
                                                   Max.-Head-Change                         Max.-Flux-Residual
  Residual-Control   Outer-Iter.   Inner-Iter.     Column Row Layer    Maximum-Head-Change  Column Row Layer    Maximum-Flux-Residual          L2-NORM 
          0                 1           2             3    7     1       0.3337121557E-01       4    5    1         0.1097664946E+01      0.3813528335E+01
          0                 2           2             3    7     1      -0.3244398469E-02       5    8    1         0.1172254895E+00      0.4100112235E+00
          0                 3           2             5    8     1       0.6475583084E-03       5    8    1         0.3493865865E-01      0.5440542237E-01
          0                 4           2             5    8     1       0.1995121473E-03       5    8    1         0.1083260883E-01      0.1487713724E-01
          0                 5           1             5    8     1       0.6150720823E-04       5    8    1         0.3335114694E-02      0.4608729175E-02

    ------------------------------------------------
       NWT REQUIRED            5 OUTER ITERATIONS 
       AND A TOTAL OF          9 INNER ITERATIONS.
    ------------------------------------------------

 NO OUTPUT CONTROL FOR STRESS PERIOD   38   TIME STEP    4
 
 SOLVING FOR HEAD 
                                                   Max.-Head-Change                         Max.-Flux-Residual
  Residual-Control   Outer-Iter.   Inner-Iter.     Column Row Layer    Maximum-Head-Change  Column Row Layer    Maximum-Flux-Residual          L2-NORM 
          0                 1           2             3    7     1       0.3290979859E-01       4    5    1         0.1069758917E+01      0.3769750946E+01
          0                 2           2             3    7     1      -0.3198518157E-02       5    8    1         0.1185864361E+00      0.4071108276E+00
          0                 3           2             5    8     1       0.6567459256E-03       5    8    1         0.3541096970E-01      0.5509166854E-01
          0                 4           2             5    8     1       0.2025649045E-03       5    8    1         0.1098898685E-01      0.1521390275E-01
          0                 5           1             5    8     1       0.6251774388E-04       5    8    1         0.3387061169E-02      0.4724881898E-02

    ------------------------------------------------
       NWT REQUIRED            5 OUTER ITERATIONS 
       AND A TOTAL OF          9 INNER ITERATIONS.
    ------------------------------------------------

 NO OUTPUT CONTROL FOR STRESS PERIOD   38   TIME STEP    5
 
 SOLVING FOR HEAD 
                                                   Max.-Head-Change                         Max.-Flux-Residual
  Residual-Control   Outer-Iter.   Inner-Iter.     Column Row Layer    Maximum-Head-Change  Column Row Layer    Maximum-Flux-Residual          L2-NORM 
          0                 1           2             3    7     1       0.3245927743E-01       4    5    1         0.1043622814E+01      0.3715095580E+01
          0                 2           2             3    7     1      -0.3153730665E-02       4    5    1        -0.1043626251E+00      0.3867816140E+00
          0                 3           2             4    8     1       0.4304515750E-03       4    8    1         0.2324703926E-01      0.4234034881E-01
          0                 4           2             4    8     1       0.1325722617E-03       4    8    1         0.7199246873E-02      0.1028883424E-01
          0                 5           1             4    8     1       0.4088372315E-04       4    8    1         0.2216184576E-02      0.3120412847E-02

    ------------------------------------------------
       NWT REQUIRED            5 OUTER ITERATIONS 
       AND A TOTAL OF          9 INNER ITERATIONS.
    ------------------------------------------------

 NO OUTPUT CONTROL FOR STRESS PERIOD   38   TIME STEP    6
 
 SOLVING FOR HEAD 
                                                   Max.-Head-Change                         Max.-Flux-Residual
  Residual-Control   Outer-Iter.   Inner-Iter.     Column Row Layer    Maximum-Head-Change  Column Row Layer    Maximum-Flux-Residual          L2-NORM 
          0                 1           2             3    7     1       0.3201953963E-01       6    7    1         0.1020567410E+01      0.3669687235E+01
          0                 2           2             3    7     1      -0.3109998423E-02       6    7    1        -0.1020573186E+00      0.3833186311E+00
          0                 3           2             4    8     1       0.4324164623E-03       4    8    1         0.2335504809E-01      0.4286660084E-01
          0                 4           2             4    8     1       0.1332008000E-03       4    8    1         0.7232125571E-02      0.1057785353E-01
          0                 5           1             4    8     1       0.4108932680E-04       4    8    1         0.2226804701E-02      0.3213087658E-02

    ------------------------------------------------
       NWT REQUIRED            5 OUTER ITERATIONS 
       AND A TOTAL OF          9 INNER ITERATIONS.
    ------------------------------------------------

 NO OUTPUT CONTROL FOR STRESS PERIOD   38   TIME STEP    7
 
 SOLVING FOR HEAD 
                                                   Max.-Head-Change                         Max.-Flux-Residual
  Residual-Control   Outer-Iter.   Inner-Iter.     Column Row Layer    Maximum-Head-Change  Column Row Layer    Maximum-Flux-Residual          L2-NORM 
          0                 1           2             3    7     1       0.3159055907E-01       6    7    1         0.1000949850E+01      0.3623757295E+01
          0                 2           2             3    7     1      -0.3067612616E-02       6    7    1        -0.1000955377E+00      0.3793546782E+00
          0                 3           2             4    8     1       0.4384600058E-03       4    8    1         0.2361638991E-01      0.4288263694E-01
          0                 4           2             4    8     1       0.1355505588E-03       4    8    1         0.7339826080E-02      0.1078086940E-01
          0                 5           1             4    8     1       0.4195847256E-04       4    8    1         0.2268066110E-02      0.3310721604E-02

    ------------------------------------------------
       NWT REQUIRED            5 OUTER ITERATIONS 
       AND A TOTAL OF          9 INNER ITERATIONS.
    ------------------------------------------------

 NO OUTPUT CONTROL FOR STRESS PERIOD   38   TIME STEP    8
 
 SOLVING FOR HEAD 
                                                   Max.-Head-Change                         Max.-Flux-Residual
  Residual-Control   Outer-Iter.   Inner-Iter.     Column Row Layer    Maximum-Head-Change  Column Row Layer    Maximum-Flux-Residual          L2-NORM 
          0                 1           2             3    7     1       0.3117131985E-01       6    7    1         0.9819857354E+00      0.3581046998E+01
          0                 2           2             3    7     1      -0.3035477693E-02       6    7    1        -0.9819910239E-01      0.3760325342E+00
          0                 3           2             4    8     1       0.4455920934E-03       4    8    1         0.2394448476E-01      0.4356749921E-01
          0                 4           2             4    8     1       0.1381996366E-03       4    8    1         0.7465110702E-02      0.1121331252E-01
          0                 5           1             4    8     1       0.4290949967E-04       4    8    1         0.2314187750E-02      0.3472280003E-02

    ------------------------------------------------
       NWT REQUIRED            5 OUTER ITERATIONS 
       AND A TOTAL OF          9 INNER ITERATIONS.
    ------------------------------------------------

 NO OUTPUT CONTROL FOR STRESS PERIOD   38   TIME STEP    9
 
 SOLVING FOR HEAD 
                                                   Max.-Head-Change                         Max.-Flux-Residual
  Residual-Control   Outer-Iter.   Inner-Iter.     Column Row Layer    Maximum-Head-Change  Column Row Layer    Maximum-Flux-Residual          L2-NORM 
          0                 1           2             3    7     1       0.3069760604E-01       4    9    1         0.9660033821E+00      0.3541355132E+01
          0                 2           2             3    7     1      -0.2978760391E-02       4    9    1        -0.9660093659E-01      0.3737254649E+00
          0                 3           2             4    8     1       0.4534911597E-03       4    8    1         0.2431786122E-01      0.4477596618E-01
          0                 4           2             4    8     1       0.1410524953E-03       4    8    1         0.7602798295E-02      0.1180226994E-01
          0                 5           1             4    8     1       0.4391395275E-04       4    8    1         0.2363584743E-02      0.3675916897E-02

    ------------------------------------------------
       NWT REQUIRED            5 OUTER ITERATIONS 
       AND A TOTAL OF          9 INNER ITERATIONS.
    ------------------------------------------------

 NO OUTPUT CONTROL FOR STRESS PERIOD   38   TIME STEP   10
 
 SOLVING FOR HEAD 
                                                   Max.-Head-Change                         Max.-Flux-Residual
  Residual-Control   Outer-Iter.   Inner-Iter.     Column Row Layer    Maximum-Head-Change  Column Row Layer    Maximum-Flux-Residual          L2-NORM 
          0                 1           2             3    7     1       0.3024639152E-01       4    9    1         0.9509958799E+00      0.3504158378E+01
          0                 2           2             3    7     1      -0.2934012104E-02       4    9    1        -0.9510016509E-01      0.3722278964E+00
          0                 3           2             4    8     1       0.4620352374E-03       4    8    1         0.2473033600E-01      0.4635425741E-01
          0                 4           2             4    8     1       0.1440744211E-03       4    8    1         0.7750856191E-02      0.1249028736E-01
          0                 5           1             4    8     1       0.4496193765E-04       4    8    1         0.2415688668E-02      0.3905183386E-02

    ------------------------------------------------
       NWT REQUIRED            5 OUTER ITERATIONS 
       AND A TOTAL OF          9 INNER ITERATIONS.
    ------------------------------------------------

 NO OUTPUT CONTROL FOR STRESS PERIOD   38   TIME STEP   11
 
 SOLVING FOR HEAD 
                                                   Max.-Head-Change                         Max.-Flux-Residual
  Residual-Control   Outer-Iter.   Inner-Iter.     Column Row Layer    Maximum-Head-Change  Column Row Layer    Maximum-Flux-Residual          L2-NORM 
          0                 1           2             3    7     1       0.2980680731E-01       4    9    1         0.9364452258E+00      0.3469421013E+01
          0                 2           2             3    7     1      -0.2890413811E-02       4    9    1        -0.9364507926E-01      0.3713436149E+00
          0                 3           2             4    8     1       0.4710640178E-03       4    8    1         0.2517278873E-01      0.4817606659E-01
          0                 4           2             4    8     1       0.1472189792E-03       4    8    1         0.7906646608E-02      0.1323441929E-01
          0                 5           1             4    8     1       0.4603997652E-04       4    8    1         0.2469735077E-02      0.4148168047E-02

    ------------------------------------------------
       NWT REQUIRED            5 OUTER ITERATIONS 
       AND A TOTAL OF          9 INNER ITERATIONS.
    ------------------------------------------------

 NO OUTPUT CONTROL FOR STRESS PERIOD   38   TIME STEP   12
 
 SOLVING FOR HEAD 
                                                   Max.-Head-Change                         Max.-Flux-Residual
  Residual-Control   Outer-Iter.   Inner-Iter.     Column Row Layer    Maximum-Head-Change  Column Row Layer    Maximum-Flux-Residual          L2-NORM 
          0                 1           2             3    7     1       0.2937881187E-01       4    9    1         0.9223685472E+00      0.3429990292E+01
          0                 2           2             3    7     1      -0.2848272121E-02       4    9    1        -0.9223733972E-01      0.3635009081E+00
          0                 3           2             5    6     1       0.4240197854E-03       5    6    1         0.2277961318E-01      0.4443886779E-01
          0                 4           2             5    6     1       0.1310151113E-03       5    6    1         0.7099919916E-02      0.1186209375E-01
          0                 5           1             5    6     1       0.4051375026E-04       5    6    1         0.2191602136E-02      0.3699571733E-02

    ------------------------------------------------
       NWT REQUIRED            5 OUTER ITERATIONS 
       AND A TOTAL OF          9 INNER ITERATIONS.
    ------------------------------------------------

 NO OUTPUT CONTROL FOR STRESS PERIOD   38   TIME STEP   13
 
 SOLVING FOR HEAD 
                                                   Max.-Head-Change                         Max.-Flux-Residual
  Residual-Control   Outer-Iter.   Inner-Iter.     Column Row Layer    Maximum-Head-Change  Column Row Layer    Maximum-Flux-Residual          L2-NORM 
          0                 1           2             3    7     1       0.2895916791E-01       4    9    1         0.9061924091E+00      0.3409509897E+01
          0                 2           2             3    7     1      -0.2807795920E-02       4    9    1        -0.9061939010E-01      0.3688323479E+00
          0                 3           2             5    6     1       0.4437977904E-03       5    6    1         0.2383965343E-01      0.4994183390E-01
          0                 4           2             5    6     1       0.1372202129E-03       5    6    1         0.7432003440E-02      0.1347402016E-01
          0                 5           1             5    6     1       0.4245688572E-04       5    6    1         0.2295777532E-02      0.4101476824E-02

    ------------------------------------------------
       NWT REQUIRED            5 OUTER ITERATIONS 
       AND A TOTAL OF          9 INNER ITERATIONS.
    ------------------------------------------------

 NO OUTPUT CONTROL FOR STRESS PERIOD   38   TIME STEP   14
 
 SOLVING FOR HEAD 
                                                   Max.-Head-Change                         Max.-Flux-Residual
  Residual-Control   Outer-Iter.   Inner-Iter.     Column Row Layer    Maximum-Head-Change  Column Row Layer    Maximum-Flux-Residual          L2-NORM 
          0                 1           2             3    7     1       0.2854587715E-01       4    9    1         0.8827836096E+00      0.3367164691E+01
          0                 2           2             3    7     1      -0.2768007328E-02       4    9    1        -0.8827852098E-01      0.3580857725E+00
          0                 3           2             5    6     1       0.4385017268E-03       5    6    1         0.2387050068E-01      0.4412060145E-01
          0                 4           2             5    6     1       0.1333021847E-03       5    6    1         0.7311789192E-02      0.1127482682E-01
          0                 5           1             5    6     1       0.4057842197E-04       5    6    1         0.2221020934E-02      0.3373826201E-02

    ------------------------------------------------
       NWT REQUIRED            5 OUTER ITERATIONS 
       AND A TOTAL OF          9 INNER ITERATIONS.
    ------------------------------------------------

 NO OUTPUT CONTROL FOR STRESS PERIOD   38   TIME STEP   15
 
 SOLVING FOR HEAD 
                                                   Max.-Head-Change                         Max.-Flux-Residual
  Residual-Control   Outer-Iter.   Inner-Iter.     Column Row Layer    Maximum-Head-Change  Column Row Layer    Maximum-Flux-Residual          L2-NORM 
          0                 1           2             3    7     1       0.2813765704E-01       6    7    1         0.8626734360E+00      0.3345872991E+01
          0                 2           2             3    7     1      -0.2729040226E-02       6    7    1        -0.8626736164E-01      0.3633868543E+00
          0                 3           2             5    7     1      -0.4219935974E-03       5    7    1        -0.2408427314E-01      0.4876923947E-01
          0                 4           2             5    6     1       0.1257587021E-03       5    6    1         0.6988250672E-02      0.1249521620E-01
          0                 5           1             5    6     1       0.3765974603E-04       5    6    1         0.2086359287E-02      0.3628771486E-02

    ------------------------------------------------
       NWT REQUIRED            5 OUTER ITERATIONS 
       AND A TOTAL OF          9 INNER ITERATIONS.
    ------------------------------------------------

 NO OUTPUT CONTROL FOR STRESS PERIOD   38   TIME STEP   16
 
 SOLVING FOR HEAD 
                                                   Max.-Head-Change                         Max.-Flux-Residual
  Residual-Control   Outer-Iter.   Inner-Iter.     Column Row Layer    Maximum-Head-Change  Column Row Layer    Maximum-Flux-Residual          L2-NORM 
          0                 1           2             3    7     1       0.2773430589E-01       4    5    1         0.8435782696E+00      0.3303027850E+01
          0                 2           2             3    7     1      -0.2690218048E-02       4    5    1        -0.8435811561E-01      0.3557057179E+00
          0                 3           2             5    6     1       0.4224261304E-03       5    6    1         0.2322865763E-01      0.4611885031E-01
          0                 4           2             5    6     1       0.1267930312E-03       5    6    1         0.7020281493E-02      0.1178433031E-01
          0                 5           1             5    6     1       0.3814752021E-04       5    6    1         0.2106049866E-02      0.3457007349E-02

    ------------------------------------------------
       NWT REQUIRED            5 OUTER ITERATIONS 
       AND A TOTAL OF          9 INNER ITERATIONS.
    ------------------------------------------------

 NO OUTPUT CONTROL FOR STRESS PERIOD   38   TIME STEP   17
 
 SOLVING FOR HEAD 
                                                   Max.-Head-Change                         Max.-Flux-Residual
  Residual-Control   Outer-Iter.   Inner-Iter.     Column Row Layer    Maximum-Head-Change  Column Row Layer    Maximum-Flux-Residual          L2-NORM 
          0                 1           2             3    7     1       0.2726376135E-01       4    5    1         0.8311526116E+00      0.3276988578E+01
          0                 2           2             3    7     1      -0.2672845571E-02       4    7    1        -0.8864869443E-01      0.3592854790E+00
          0                 3           2             4    7     1      -0.4828103227E-03       4    7    1        -0.2619198498E-01      0.5073287022E-01
          0                 4           2             4    7     1      -0.1410738104E-03       4    7    1        -0.7641267197E-02      0.1339954741E-01
          0                 5           1             4    7     1      -0.4118801512E-04       4    7    1        -0.2232875232E-02      0.3935988733E-02

    ------------------------------------------------
       NWT REQUIRED            5 OUTER ITERATIONS 
       AND A TOTAL OF          9 INNER ITERATIONS.
    ------------------------------------------------

 NO OUTPUT CONTROL FOR STRESS PERIOD   38   TIME STEP   18
 
 SOLVING FOR HEAD 
                                                   Max.-Head-Change                         Max.-Flux-Residual
  Residual-Control   Outer-Iter.   Inner-Iter.     Column Row Layer    Maximum-Head-Change  Column Row Layer    Maximum-Flux-Residual          L2-NORM 
          0                 1           2             3    7     1       0.2674037713E-01       4    5    1         0.8191895043E+00      0.3254431353E+01
          0                 2           2             3    7     1      -0.2630029738E-02       4    7    1        -0.1237225838E+00      0.3647622986E+00
          0                 3           2             4    7     1      -0.6668236458E-03       4    7    1        -0.3627164898E-01      0.5558273079E-01
          0                 4           2             4    7     1      -0.1940798827E-03       4    7    1        -0.1054271220E-01      0.1497878853E-01
          0                 5           1             4    7     1      -0.5647357917E-04       4    7    1        -0.3068871971E-02      0.4393322984E-02

    ------------------------------------------------
       NWT REQUIRED            5 OUTER ITERATIONS 
       AND A TOTAL OF          9 INNER ITERATIONS.
    ------------------------------------------------

 NO OUTPUT CONTROL FOR STRESS PERIOD   38   TIME STEP   19
 
 SOLVING FOR HEAD 
                                                   Max.-Head-Change                         Max.-Flux-Residual
  Residual-Control   Outer-Iter.   Inner-Iter.     Column Row Layer    Maximum-Head-Change  Column Row Layer    Maximum-Flux-Residual          L2-NORM 
          0                 1           2             3    7     1       0.2622266781E-01       4    5    1         0.8076017551E+00      0.3218667875E+01
          0                 2           2             3    7     1      -0.2577241045E-02       4    7    1        -0.1133113467E+00      0.3546605368E+00
          0                 3           2             4    7     1      -0.6111302521E-03       4    7    1        -0.3322823692E-01      0.5153730715E-01
          0                 4           1             4    7     1      -0.1781152235E-03       4    7    1        -0.9663761002E-02      0.1349354342E-01
          0                 5           1             4    7     1      -0.5194802593E-04       4    7    1        -0.2817594050E-02      0.3908300658E-02

    ------------------------------------------------
       NWT REQUIRED            5 OUTER ITERATIONS 
       AND A TOTAL OF          8 INNER ITERATIONS.
    ------------------------------------------------

 NO OUTPUT CONTROL FOR STRESS PERIOD   38   TIME STEP   20
 
 SOLVING FOR HEAD 
                                                   Max.-Head-Change                         Max.-Flux-Residual
  Residual-Control   Outer-Iter.   Inner-Iter.     Column Row Layer    Maximum-Head-Change  Column Row Layer    Maximum-Flux-Residual          L2-NORM 
          0                 1           2             3    7     1       0.2572453807E-01       4    5    1         0.7959778334E+00      0.3175780531E+01
          0                 2           2             3    7     1      -0.2526504809E-02       4    7    1        -0.1035780668E+00      0.3470494365E+00
          0                 3           2             4    7     1      -0.5580069069E-03       4    7    1        -0.3036315713E-01      0.4881832221E-01
          0                 4           1             4    7     1      -0.1624870499E-03       4    7    1        -0.8821580780E-02      0.1263070084E-01
          0                 5           1             4    7     1      -0.4734761934E-04       4    7    1        -0.2569787689E-02      0.3649759857E-02

    ------------------------------------------------
       NWT REQUIRED            5 OUTER ITERATIONS 
       AND A TOTAL OF          8 INNER ITERATIONS.
    ------------------------------------------------

 NO OUTPUT CONTROL FOR STRESS PERIOD   38   TIME STEP   21
 
 SOLVING FOR HEAD 
                                                   Max.-Head-Change                         Max.-Flux-Residual
  Residual-Control   Outer-Iter.   Inner-Iter.     Column Row Layer    Maximum-Head-Change  Column Row Layer    Maximum-Flux-Residual          L2-NORM 
          0                 1           2             3    7     1       0.2524516671E-01       4    5    1         0.7843632355E+00      0.3131106602E+01
          0                 2           2             3    7     1      -0.2477727372E-02       4    7    1        -0.9442858687E-01      0.3377576998E+00
          0                 3           2             4    7     1      -0.5078137564E-03       4    7    1        -0.2766314391E-01      0.4485858712E-01
          0                 4           1             4    7     1      -0.1476585420E-03       4    7    1        -0.8025149562E-02      0.1137290896E-01
          0                 5           1             4    7     1      -0.4296011764E-04       4    7    1        -0.2334395557E-02      0.3281179980E-02

    ------------------------------------------------
       NWT REQUIRED            5 OUTER ITERATIONS 
       AND A TOTAL OF          8 INNER ITERATIONS.
    ------------------------------------------------

 NO OUTPUT CONTROL FOR STRESS PERIOD   38   TIME STEP   22
 
 SOLVING FOR HEAD 
                                                   Max.-Head-Change                         Max.-Flux-Residual
  Residual-Control   Outer-Iter.   Inner-Iter.     Column Row Layer    Maximum-Head-Change  Column Row Layer    Maximum-Flux-Residual          L2-NORM 
          0                 1           2             3    7     1       0.2478330379E-01       4    5    1         0.7728208204E+00      0.3089598056E+01
          0                 2           2             3    7     1      -0.2430774163E-02       4    7    1        -0.8580776131E-01      0.3295611278E+00
          0                 3           2             4    7     1      -0.4603808327E-03       4    7    1        -0.2511472216E-01      0.4143927090E-01
          0                 4           1             4    7     1      -0.1336230124E-03       4    7    1        -0.7272203617E-02      0.1027333036E-01
          0                 5           1             4    7     1      -0.3880080951E-04       4    7    1        -0.2111501962E-02      0.2958652090E-02

    ------------------------------------------------
       NWT REQUIRED            5 OUTER ITERATIONS 
       AND A TOTAL OF          8 INNER ITERATIONS.
    ------------------------------------------------

 NO OUTPUT CONTROL FOR STRESS PERIOD   38   TIME STEP   23
 
 SOLVING FOR HEAD 
                                                   Max.-Head-Change                         Max.-Flux-Residual
  Residual-Control   Outer-Iter.   Inner-Iter.     Column Row Layer    Maximum-Head-Change  Column Row Layer    Maximum-Flux-Residual          L2-NORM 
          0                 1           2             3    7     1       0.2433851010E-01       4    5    1         0.7614236149E+00      0.3050946229E+01
          0                 2           2             3    7     1      -0.2385593311E-02       4    7    1        -0.7766882543E-01      0.3225681890E+00
          0                 3           2             4    7     1      -0.4154773195E-03       4    7    1        -0.2270490402E-01      0.3854775726E-01
          0                 4           1             4    7     1      -0.1203164027E-03       4    7    1        -0.6559137892E-02      0.9331165440E-02
          0                 5           1             4    7     1      -0.3485192405E-04       4    7    1        -0.1900106477E-02      0.2682592734E-02

    ------------------------------------------------
       NWT REQUIRED            5 OUTER ITERATIONS 
       AND A TOTAL OF          8 INNER ITERATIONS.
    ------------------------------------------------

 NO OUTPUT CONTROL FOR STRESS PERIOD   38   TIME STEP   24
 
 SOLVING FOR HEAD 
                                                   Max.-Head-Change                         Max.-Flux-Residual
  Residual-Control   Outer-Iter.   Inner-Iter.     Column Row Layer    Maximum-Head-Change  Column Row Layer    Maximum-Flux-Residual          L2-NORM 
          0                 1           2             3    7     1       0.2390967204E-01       4    5    1         0.7502036858E+00      0.3014857554E+01
          0                 2           2             3    7     1      -0.2342067159E-02       4    5    1        -0.7502059371E-01      0.3165534753E+00
          0                 3           2             4    7     1      -0.3729108291E-03       4    7    1        -0.2042285734E-01      0.3616157265E-01
          0                 4           1             4    7     1      -0.1076853485E-03       4    7    1        -0.5882948102E-02      0.8547916245E-02
          0                 5           1             4    7     1      -0.3109866269E-04       4    7    1        -0.1699375761E-02      0.2454006560E-02

    ------------------------------------------------
       NWT REQUIRED            5 OUTER ITERATIONS 
       AND A TOTAL OF          8 INNER ITERATIONS.
    ------------------------------------------------

 NO OUTPUT CONTROL FOR STRESS PERIOD   38   TIME STEP   25
 
 SOLVING FOR HEAD 
                                                   Max.-Head-Change                         Max.-Flux-Residual
  Residual-Control   Outer-Iter.   Inner-Iter.     Column Row Layer    Maximum-Head-Change  Column Row Layer    Maximum-Flux-Residual          L2-NORM 
          0                 1           2             3    7     1       0.2349438220E-01       4    5    1         0.7392065767E+00      0.3005777766E+01
          0                 2           2             3    7     1      -0.2301175621E-02       4    6    1        -0.1133273840E+00      0.3288812866E+00
          0                 3           2             4    6     1      -0.6270535410E-03       4    6    1        -0.3390897460E-01      0.4731639925E-01
          0                 4           2             4    6     1      -0.1845465459E-03       4    6    1        -0.9937448331E-02      0.1254992730E-01
          0                 5           1             4    6     1      -0.5434224391E-04       4    6    1        -0.2926416419E-02      0.3699922852E-02

    ------------------------------------------------
       NWT REQUIRED            5 OUTER ITERATIONS 
       AND A TOTAL OF          9 INNER ITERATIONS.
    ------------------------------------------------

 NO OUTPUT CONTROL FOR STRESS PERIOD   38   TIME STEP   26
 
 SOLVING FOR HEAD 
                                                   Max.-Head-Change                         Max.-Flux-Residual
  Residual-Control   Outer-Iter.   Inner-Iter.     Column Row Layer    Maximum-Head-Change  Column Row Layer    Maximum-Flux-Residual          L2-NORM 
          0                 1           2             3    7     1       0.2308880400E-01       4    5    1         0.7170638607E+00      0.2969108719E+01
          0                 2           2             3    7     1      -0.2260917446E-02       4    6    1        -0.1078141473E+00      0.3231456439E+00
          0                 3           2             4    6     1      -0.5959202811E-03       4    6    1        -0.3224843101E-01      0.4531937327E-01
          0                 4           2             4    6     1      -0.1752386189E-03       4    6    1        -0.9441935987E-02      0.1190874740E-01
          0                 5           1             4    6     1      -0.5155878537E-04       4    6    1        -0.2778236084E-02      0.3503952828E-02

    ------------------------------------------------
       NWT REQUIRED            5 OUTER ITERATIONS 
       AND A TOTAL OF          9 INNER ITERATIONS.
    ------------------------------------------------

 NO OUTPUT CONTROL FOR STRESS PERIOD   38   TIME STEP   27
 
 SOLVING FOR HEAD 
                                                   Max.-Head-Change                         Max.-Flux-Residual
  Residual-Control   Outer-Iter.   Inner-Iter.     Column Row Layer    Maximum-Head-Change  Column Row Layer    Maximum-Flux-Residual          L2-NORM 
          0                 1           2             3    7     1       0.2269386389E-01       4    5    1         0.6961009103E+00      0.2931766613E+01
          0                 2           2             3    7     1      -0.2221418930E-02       4    6    1        -0.9700172078E-01      0.3158813858E+00
          0                 3           2             4    6     1      -0.5365507688E-03       4    6    1        -0.2904844804E-01      0.4235991576E-01
          0                 4           2             4    6     1      -0.1577411134E-03       4    6    1        -0.8500442643E-02      0.1094644882E-01
          0                 5           1             4    6     1      -0.4639843705E-04       4    6    1        -0.2500674732E-02      0.3213307641E-02

    ------------------------------------------------
       NWT REQUIRED            5 OUTER ITERATIONS 
       AND A TOTAL OF          9 INNER ITERATIONS.
    ------------------------------------------------

 NO OUTPUT CONTROL FOR STRESS PERIOD   38   TIME STEP   28
 
 SOLVING FOR HEAD 
                                                   Max.-Head-Change                         Max.-Flux-Residual
  Residual-Control   Outer-Iter.   Inner-Iter.     Column Row Layer    Maximum-Head-Change  Column Row Layer    Maximum-Flux-Residual          L2-NORM 
          0                 1           2             3    7     1       0.2230959837E-01       4    5    1         0.6766425642E+00      0.2896625851E+01
          0                 2           2             3    7     1      -0.2183067796E-02       4    6    1        -0.8689264091E-01      0.3094974533E+00
          0                 3           2             4    6     1      -0.4810075251E-03       4    6    1        -0.2605675880E-01      0.3974120026E-01
          0                 4           2             4    6     1      -0.1413597333E-03       4    6    1        -0.7619447775E-02      0.1008402586E-01
          0                 5           1             4    6     1      -0.4156393539E-04       4    6    1        -0.2240772468E-02      0.2952318807E-02

    ------------------------------------------------
       NWT REQUIRED            5 OUTER ITERATIONS 
       AND A TOTAL OF          9 INNER ITERATIONS.
    ------------------------------------------------

 NO OUTPUT CONTROL FOR STRESS PERIOD   38   TIME STEP   29
 
 SOLVING FOR HEAD 
                                                   Max.-Head-Change                         Max.-Flux-Residual
  Residual-Control   Outer-Iter.   Inner-Iter.     Column Row Layer    Maximum-Head-Change  Column Row Layer    Maximum-Flux-Residual          L2-NORM 
          0                 1           2             3    7     1       0.2193572987E-01       6    8    1         0.6617231868E+00      0.2863546502E+01
          0                 2           2             3    7     1      -0.2145721953E-02       4    6    1        -0.7743538512E-01      0.3038232340E+00
          0                 3           2             4    6     1      -0.4289815631E-03       4    6    1        -0.2325596868E-01      0.3745452831E-01
          0                 4           2             4    6     1      -0.1260052762E-03       4    6    1        -0.6794097061E-02      0.9322911443E-02
          0                 5           1             4    6     1      -0.3702950509E-04       4    6    1        -0.1997121457E-02      0.2721527778E-02

    ------------------------------------------------
       NWT REQUIRED            5 OUTER ITERATIONS 
       AND A TOTAL OF          9 INNER ITERATIONS.
    ------------------------------------------------

 NO OUTPUT CONTROL FOR STRESS PERIOD   38   TIME STEP   30



 STREAM LISTING     PERIOD     38   STEP       30

 LAYER ROW COL. STREAM  RCH.  FLOW INTO     FLOW TO   FLOW OUT OF   OVRLND.     DIRECT     STREAM       STREAM     STREAM     STREAM   STREAMBED  STREAMBED
                SEG.NO.  NO.  STRM. RCH.    AQUIFER    STRM. RCH.    RUNOFF     PRECIP       ET          HEAD       DEPTH      WIDTH   CONDCTNC.   GRADIENT

   1    1    1     1     1    7.1248E+00  1.2038E-01   7.0044E+00  0.000E+00  0.000E+00  0.000E+00  1.09385E+03  8.024E-01  7.035E+00  3.166E-02  1.267E+00
   1    2    2     1     2    7.0044E+00  1.8491E-01   6.8195E+00  0.000E+00  0.000E+00  0.000E+00  1.08886E+03  7.976E-01  6.956E+00  4.869E-02  1.266E+00
   1    3    3     1     3    6.8195E+00  1.5635E-01   6.6631E+00  0.000E+00  0.000E+00  0.000E+00  1.08321E+03  7.928E-01  6.870E+00  4.122E-02  1.264E+00
   1    3    4     1     4    6.6631E+00  1.4286E-01   6.5203E+00  0.000E+00  0.000E+00  0.000E+00  1.07820E+03  7.886E-01  6.794E+00  3.771E-02  1.263E+00
   1    4    5     2     1    4.5203E+00  2.6715E-01   4.2531E+00  0.000E+00  0.000E+00  0.000E+00  1.07236E+03  4.250E-01  1.200E+01  7.800E-02  1.142E+00
   1    5    6     2     2    4.2531E+00  2.0467E-01   4.0485E+00  0.000E+00  0.000E+00  0.000E+00  1.06692E+03  4.112E-01  1.200E+01  6.000E-02  1.137E+00
   1    6    6     2     3    4.0485E+00  2.0393E-01   3.8445E+00  0.000E+00  0.000E+00  0.000E+00  1.06219E+03  3.989E-01  1.200E+01  6.000E-02  1.133E+00
   1    7    6     2     4    3.8445E+00  2.0319E-01   3.6413E+00  0.000E+00  0.000E+00  0.000E+00  1.05746E+03  3.864E-01  1.200E+01  6.000E-02  1.129E+00
   1    8    6     2     5    3.6413E+00  2.0242E-01   3.4389E+00  0.000E+00  0.000E+00  0.000E+00  1.05273E+03  3.737E-01  1.200E+01  6.000E-02  1.125E+00
   1    3    5     3     1    2.0000E+00  2.8252E-01   1.7175E+00  0.000E+00  0.000E+00  0.000E+00  1.07555E+03  1.909E+00  9.636E+00  7.227E-02  1.955E+00
   1    3    6     3     2    1.7175E+00  2.4905E-01   1.4684E+00  0.000E+00  0.000E+00  0.000E+00  1.07264E+03  1.727E+00  8.909E+00  6.682E-02  1.864E+00
   1    3    7     3     3    1.4684E+00  1.9718E-01   1.2712E+00  0.000E+00  0.000E+00  0.000E+00  1.06987E+03  1.555E+00  8.218E+00  5.547E-02  1.777E+00
   1    4    8     3     4    1.2712E+00  2.2567E-01   1.0456E+00  0.000E+00  0.000E+00  0.000E+00  1.06682E+03  1.364E+00  7.455E+00  6.709E-02  1.682E+00
   1    5    8     3     5    1.0456E+00  1.5790E-01   8.8768E-01  0.000E+00  0.000E+00  0.000E+00  1.06362E+03  1.164E+00  6.655E+00  4.991E-02  1.582E+00
   1    6    8     3     6    8.8768E-01  5.5980E-02   8.3170E-01  0.000E+00  0.000E+00  0.000E+00  1.06158E+03  1.036E+00  6.145E+00  1.844E-02  1.518E+00
   1    5   10     4     1    1.0000E+01  9.0919E-02   9.9091E+00  0.000E+00  0.000E+00  0.000E+00  1.07836E+03  6.368E-01  1.000E+01  2.500E-02  1.212E+00
   1    5    9     4     2    9.9091E+00  1.8158E-01   9.7275E+00  0.000E+00  0.000E+00  0.000E+00  1.07154E+03  6.315E-01  1.000E+01  5.000E-02  1.211E+00
   1    6    8     4     3    9.7275E+00  1.2689E-01   9.6006E+00  0.000E+00  0.000E+00  0.000E+00  1.06381E+03  6.256E-01  1.000E+01  3.500E-02  1.209E+00
   1    6    8     5     1    1.0432E+01  2.2686E-01   1.0205E+01  0.000E+00  0.000E+00  0.000E+00  1.05868E+03  6.790E-01  1.542E+01  6.166E-02  1.226E+00
   1    7    7     5     2    1.0205E+01  2.7894E-01   9.9265E+00  0.000E+00  0.000E+00  0.000E+00  1.05417E+03  6.732E-01  1.519E+01  7.594E-02  1.224E+00
   1    8    7     5     3    9.9265E+00  1.9221E-01   9.7343E+00  0.000E+00  0.000E+00  0.000E+00  1.04992E+03  6.676E-01  1.497E+01  5.241E-02  1.223E+00
   1    8    6     5     4    9.7343E+00  1.3577E-01   9.5985E+00  0.000E+00  0.000E+00  0.000E+00  1.04691E+03  6.637E-01  1.482E+01  3.706E-02  1.221E+00
   1    9    6     6     1    1.3037E+01  2.2931E-01   1.2808E+01  0.000E+00  0.000E+00  0.000E+00  1.04355E+03  8.218E-01  1.200E+01  6.000E-02  1.274E+00
   1   10    7     6     2    1.2808E+01  2.2878E-01   1.2579E+01  0.000E+00  0.000E+00  0.000E+00  1.03899E+03  8.131E-01  1.200E+01  6.000E-02  1.271E+00
   1   11    7     6     3    1.2579E+01  2.2825E-01   1.2351E+01  0.000E+00  0.000E+00  0.000E+00  1.03444E+03  8.042E-01  1.200E+01  6.000E-02  1.268E+00
   1   12    7     6     4    1.2351E+01  2.2772E-01   1.2123E+01  0.000E+00  0.000E+00  0.000E+00  1.02989E+03  7.954E-01  1.200E+01  6.000E-02  1.265E+00
   1   13    7     6     5    1.2123E+01  1.0586E-02   1.2113E+01  0.000E+00  0.000E+00  0.000E+00  1.02670E+03  7.907E-01  1.200E+01  2.400E-02  1.470E-01
   1   14    9     7     1    1.5000E+02  1.4204E+00   1.4858E+02  0.000E+00  0.000E+00  0.000E+00  1.03987E+03  2.287E+00  5.529E+01  5.593E-01  8.465E-01
   1   13    8     7     2    1.4858E+02  2.0973E+00   1.4648E+02  0.000E+00  0.000E+00  0.000E+00  1.03478E+03  2.278E+00  5.525E+01  6.147E-01  1.137E+00
   1   13    7     7     3    1.4648E+02  1.9139E+00   1.4457E+02  0.000E+00  0.000E+00  0.000E+00  1.02969E+03  2.267E+00  5.520E+01  5.583E-01  1.143E+00
   1   13    6     8     1    1.5668E+02  1.2748E+00   1.5541E+02  0.000E+00  0.000E+00  0.000E+00  1.02473E+03  2.859E+00  4.145E+01  4.224E-01  1.006E+00
   1   13    5     8     2    1.5541E+02  5.1195E-01   1.5489E+02  0.000E+00  0.000E+00  0.000E+00  1.01848E+03  2.853E+00  4.136E+01  4.215E-01  4.048E-01
   1   13    4     8     3    1.5489E+02 -1.2765E+00   1.5617E+02  0.000E+00  0.000E+00  0.000E+00  1.01223E+03  2.855E+00  4.140E+01  4.219E+00 -1.008E-01
   1   13    3     8     4    1.5617E+02 -3.0741E+00   1.5925E+02  0.000E+00  0.000E+00  0.000E+00  1.00600E+03  2.870E+00  4.162E+01  4.241E+00 -2.416E-01
   1   13    2     8     5    1.5925E+02 -2.4411E+00   1.6169E+02  0.000E+00  0.000E+00  0.000E+00  9.99764E+02  2.889E+00  4.189E+01  4.269E+00 -1.906E-01
   1   13    1     8     6    1.6169E+02 -1.9503E+00   1.6364E+02  0.000E+00  0.000E+00  0.000E+00  9.94779E+02  2.904E+00  4.210E+01  2.574E+00 -2.525E-01
   1    8    6     9     1    0.0000E+00  0.0000E+00   0.0000E+00  0.000E+00  0.000E+00  0.000E+00  1.07875E+03  0.000E+00  4.000E+00  0.000E+00  1.000E+00
   1    8    5     9     2    0.0000E+00  0.0000E+00   0.0000E+00  0.000E+00  0.000E+00  0.000E+00  1.07825E+03  0.000E+00  4.000E+00  0.000E+00  1.000E+00





UNSATURATED ZONE PACKAGE VOLUMETRIC BUDGET FOR  TIME STEP    30 STRESS PERIOD   38
  ------------------------------------------------------------------------------



     CUMULATIVE VOLUMES      L**3       RATES FOR THIS TIME STEP      L**3/T
     ------------------                 ------------------------

           IN:                                      IN:
           ---                                      ---
        INFILTRATION =  9913545560.5182          INFILTRATION =           0.8475

          OUT:                                     OUT:
          ----                                     ----
              UZF ET =  1288087453.0211                UZF ET =           0.7950
        UZF RECHARGE =  8165613488.5544          UZF RECHARGE =           9.1050

            IN - OUT =   459844618.9427              IN - OUT =          -9.0525

          STORAGE:                                 STORAGE:
          --------                                 --------
      STORAGE CHANGE =   460968491.0541        STORAGE CHANGE =          -9.0525

 PERCENT DISCREPANCY IS DIFFERENCE BETWEEN IN-OUT MINUS CHANGE IN STORAGE
 DIVIDED BY THE AVERAGE OF IN AND OUT TIMES 100

 PERCENT DISCREPANCY =          -0.00     PERCENT DISCREPANCY =           0.00






1
  VOLUMETRIC BUDGET FOR AGRICULTURAL FIELDS AT  END OF TIME STEP   30, STRESS PERIOD  38
  ------------------------------------------------------------------------------

     CUMULATIVE VOLUMES      L**3       RATES FOR THIS TIME STEP      L**3/T
     ------------------                 ------------------------

           IN:                                      IN:
           ---                                      ---
               AG WELLS  =  9374535680.0000                 AG WELLS  =           0.0000
      DIVERSION SEGMENTS =   456493472.0000        DIVERSION SEGMENTS =           0.0000
           GW IRRIGATION =           0.0000             GW IRRIGATION =           0.0000
           SW IRRIGATION =           0.0000             SW IRRIGATION =           0.0000
        SYSTEM LOSSES GW =           0.0000          SYSTEM LOSSES GW =           0.0000
        SYSTEM LOSSES SW =           0.0000          SYSTEM LOSSES SW =           0.0000

                TOTAL IN =  9831028736.0000                  TOTAL IN =           0.0000

          OUT:                                     OUT:
          ----                                     ----
               AG WELLS  =           0.0000                 AG WELLS  =           0.0000
      DIVERSION SEGMENTS =           0.0000        DIVERSION SEGMENTS =           0.0000
           GW IRRIGATION =  9374535680.0000             GW IRRIGATION =           0.0000
           SW IRRIGATION =   456501856.0000             SW IRRIGATION =           0.0000
        SYSTEM LOSSES GW =           0.0000          SYSTEM LOSSES GW =           0.0000
        SYSTEM LOSSES SW =           0.0000          SYSTEM LOSSES SW =           0.0000

               TOTAL OUT =  9831037952.0000                 TOTAL OUT =           0.0000

                IN - OUT =       -9216.0000                  IN - OUT =           0.0000

     PERCENT DISCREPANCY =          -0.00         PERCENT DISCREPANCY =           0.00



1
  VOLUMETRIC BUDGET FOR ENTIRE MODEL AT END OF TIME STEP   30, STRESS PERIOD  38
  ------------------------------------------------------------------------------

     CUMULATIVE VOLUMES      L**3       RATES FOR THIS TIME STEP      L**3/T
     ------------------                 ------------------------

           IN:                                      IN:
           ---                                      ---
             STORAGE     =  8179559424.0000               STORAGE     =           3.2430
       CONSTANT HEAD     =           0.0000         CONSTANT HEAD     =           0.0000
     HEAD DEP BOUNDS     =    28173086.0000       HEAD DEP BOUNDS     =           0.2915
      STREAM LEAKAGE     =  1195284352.0000        STREAM LEAKAGE     =          12.2303
        UZF RECHARGE     =  8165613568.0000          UZF RECHARGE     =           9.1050
               GW ET     =           0.0000                 GW ET     =           0.0000
     SURFACE LEAKAGE     =           0.0000       SURFACE LEAKAGE     =           0.0000
           AG WELLS      =           0.0000             AG WELLS      =           0.0000

                TOTAL IN = 17568630784.0000                  TOTAL IN =          24.8698

          OUT:                                     OUT:
          ----                                     ----
             STORAGE     =  7249826304.0000               STORAGE     =          15.8421
       CONSTANT HEAD     =           0.0000         CONSTANT HEAD     =           0.0000
     HEAD DEP BOUNDS     =    28024856.0000       HEAD DEP BOUNDS     =           0.2864
      STREAM LEAKAGE     =   916101824.0000        STREAM LEAKAGE     =           8.7419
        UZF RECHARGE     =           0.0000          UZF RECHARGE     =           0.0000
               GW ET     =           0.0000                 GW ET     =           0.0000
     SURFACE LEAKAGE     =           0.0000       SURFACE LEAKAGE     =           0.0000
           AG WELLS      =  9374535680.0000             AG WELLS      =           0.0000

               TOTAL OUT = 17568489472.0000                 TOTAL OUT =          24.8704

                IN - OUT =      141312.0000                  IN - OUT =      -6.1607E-04

     PERCENT DISCREPANCY =           0.00         PERCENT DISCREPANCY =          -0.00






         TIME SUMMARY AT END OF TIME STEP   30 IN STRESS PERIOD   38
                    SECONDS     MINUTES      HOURS       DAYS        YEARS
                    -----------------------------------------------------------
   TIME STEP LENGTH  87667.      1461.1      24.352      1.0147     2.77799E-03
 STRESS PERIOD TIME 2.63000E+06  43833.      730.56      30.440     8.33397E-02
         TOTAL TIME 9.73959E+07 1.62326E+06  27054.      1127.3      3.0863    
1
1
                            STRESS PERIOD NO.   39, LENGTH =   2630000.    
                            -----------------------------------------------

                              NUMBER OF TIME STEPS =    30

                               MULTIPLIER FOR DELT =     1.000

                            INITIAL TIME STEP SIZE =   87666.66    

 REUSING NON-PARAMETER GHB CELLS FROM LAST STRESS PERIOD

      2 GHB CELLS

 REUSING STREAM SEGMENT DATA FROM LAST STRESS PERIOD



            AREAL INFILTRATION RATE
 READING ON UNIT   19 WITH FORMAT: (FREE)              

            1           2           3           4           5           6           7           8           9          10
 ........................................................................................................................
   1   1.0000E-10  2.0000E-10   0.000       0.000       0.000       0.000       0.000       0.000       0.000       0.000    
   2   2.0000E-10  1.0000E-10  2.0000E-10   0.000       0.000      8.0000E-10  8.0000E-10  5.0000E-10   0.000       0.000    
   3    0.000      5.0000E-10  1.0000E-10  1.0000E-10  8.0000E-10  8.0000E-10  5.0000E-10  5.0000E-10   0.000       0.000    
   4   8.0000E-10  5.0000E-10  1.0000E-10  1.0000E-10  1.0000E-10  1.0000E-10  1.0000E-10  1.0000E-10  2.0000E-10   0.000    
   5   8.0000E-10  5.0000E-10  1.0000E-10  1.0000E-10  1.0000E-10  1.0000E-10  1.0000E-10  1.0000E-10  1.0000E-10  1.0000E-10
   6   8.0000E-10  5.0000E-10  5.0000E-10  2.0000E-10  2.0000E-10  1.0000E-10  1.0000E-10  1.0000E-10  1.0000E-10  5.0000E-10
   7   8.0000E-10  5.0000E-10  5.0000E-10  2.0000E-10  2.0000E-10  1.0000E-10  1.0000E-10  2.0000E-10  2.0000E-10   0.000    
   8    0.000      5.0000E-10  5.0000E-10  2.0000E-10  2.0000E-10  1.0000E-10  1.0000E-10  2.0000E-10  5.0000E-10   0.000    
   9    0.000      5.0000E-10  5.0000E-10  2.0000E-10  2.0000E-10  1.0000E-10  1.0000E-10  2.0000E-10  5.0000E-10   0.000    
  10    0.000      5.0000E-10  5.0000E-10  2.0000E-10  2.0000E-10  1.0000E-10  1.0000E-10  2.0000E-10  5.0000E-10  8.0000E-10
  11    0.000      1.0000E-10  1.0000E-10  1.0000E-10  1.0000E-10  1.0000E-10  1.0000E-10  2.0000E-10  5.0000E-10   0.000    
  12   1.0000E-10  1.0000E-10  1.0000E-10  1.0000E-10  1.0000E-10  1.0000E-10  1.0000E-10  1.0000E-10  2.0000E-10   0.000    
  13   1.0000E-10  1.0000E-10  2.0000E-10  2.0000E-10  2.0000E-10  2.0000E-10  2.0000E-10  1.0000E-10  1.0000E-10   0.000    
  14    0.000      2.0000E-10  5.0000E-10  5.0000E-10  5.0000E-10  5.0000E-10  5.0000E-10  2.0000E-10  1.0000E-10   0.000    
  15    0.000       0.000      8.0000E-10  8.0000E-10  8.0000E-10  8.0000E-10   0.000       0.000       0.000       0.000    

                  ET RATE =  5.000000E-10

 USING ET EXTINCTION DEPTH FROM PREVIOUS STRESS PERIOD. CURRENT PERIOD IS:      39

 USING EXTINCTION WATER CONTENT FROM PREVIOUS STRESS PERIOD. CURRENT PERIOD IS:      39

 USING AIR ENTRY PRESSURE FROM PREVIOUS STRESS PERIOD. CURRENT PERIOD IS:      39

 USING ROOT PRESSURE HEAD FROM PREVIOUS STRESS PERIOD. CURRENT PERIOD IS:      39

 USING ROOT ACTIVITY FROM PREVIOUS STRESS PERIOD. CURRENT PERIOD IS:      39

 PROCESSING AG STRESS PERIOD DATA

 READING AG STRESS PERIOD DATA

 READING IRRIGATION SEGMENT

 READING IRRIGATION WELL

 READING SUPPLEMENTAL WELL

 END PROCESSING AG STRESS PERIOD DATA OPTIONS
 
 SOLVING FOR HEAD 
                                                   Max.-Head-Change                         Max.-Flux-Residual
  Residual-Control   Outer-Iter.   Inner-Iter.     Column Row Layer    Maximum-Head-Change  Column Row Layer    Maximum-Flux-Residual          L2-NORM 
          0                 1           2             3    7     1       0.2157208390E-01       6    8    1         0.6539142454E+00      0.2832369866E+01
          0                 2           2             3    7     1      -0.2109369419E-02       4    6    1        -0.6858073055E-01      0.2987986947E+00
          0                 3           2             4    6     1      -0.3802120641E-03       4    6    1        -0.2063181772E-01      0.3549661407E-01
          0                 4           2             4    6     1      -0.1116023505E-03       4    6    1        -0.6020274843E-02      0.8665757412E-02
          0                 5           1             4    6     1      -0.3277325779E-04       4    6    1        -0.1768519674E-02      0.2521940768E-02

    ------------------------------------------------
       NWT REQUIRED            5 OUTER ITERATIONS 
       AND A TOTAL OF          9 INNER ITERATIONS.
    ------------------------------------------------

 NO OUTPUT CONTROL FOR STRESS PERIOD   39   TIME STEP    1
 
 SOLVING FOR HEAD 
                                                   Max.-Head-Change                         Max.-Flux-Residual
  Residual-Control   Outer-Iter.   Inner-Iter.     Column Row Layer    Maximum-Head-Change  Column Row Layer    Maximum-Flux-Residual          L2-NORM 
          0                 1           2             3    7     1       0.2121870702E-01       6    8    1         0.6463800732E+00      0.2802944134E+01
          0                 2           2             3    7     1      -0.2074018991E-02       6    8    1        -0.6463816277E-01      0.2943668213E+00
          0                 3           2             4    6     1      -0.3344605329E-03       4    6    1        -0.1817128130E-01      0.3386247192E-01
          0                 4           1             4    6     1      -0.9808190465E-04       4    6    1        -0.5294216066E-02      0.8115266861E-02

    ------------------------------------------------
       NWT REQUIRED            4 OUTER ITERATIONS 
       AND A TOTAL OF          7 INNER ITERATIONS.
    ------------------------------------------------

 NO OUTPUT CONTROL FOR STRESS PERIOD   39   TIME STEP    2
 
 SOLVING FOR HEAD 
                                                   Max.-Head-Change                         Max.-Flux-Residual
  Residual-Control   Outer-Iter.   Inner-Iter.     Column Row Layer    Maximum-Head-Change  Column Row Layer    Maximum-Flux-Residual          L2-NORM 
          0                 1           2             3    7     1       0.2087558918E-01       6    8    1         0.6408408217E+00      0.2776960360E+01
          0                 2           2             3    7     1      -0.2039676288E-02       6    8    1        -0.6408423558E-01      0.2906612648E+00
          0                 3           2             5    8     1       0.2994856037E-03       5    8    1         0.1626672369E-01      0.3256079066E-01
          0                 4           1             5    8     1       0.8624791739E-04       5    8    1         0.4727667869E-02      0.7676719913E-02

    ------------------------------------------------
       NWT REQUIRED            4 OUTER ITERATIONS 
       AND A TOTAL OF          7 INNER ITERATIONS.
    ------------------------------------------------

 NO OUTPUT CONTROL FOR STRESS PERIOD   39   TIME STEP    3
 
 SOLVING FOR HEAD 
                                                   Max.-Head-Change                         Max.-Flux-Residual
  Residual-Control   Outer-Iter.   Inner-Iter.     Column Row Layer    Maximum-Head-Change  Column Row Layer    Maximum-Flux-Residual          L2-NORM 
          0                 1           2             3    7     1       0.2054225731E-01       6    8    1         0.6345655612E+00      0.2751597662E+01
          0                 2           2             3    7     1      -0.2006295056E-02       6    8    1        -0.6345670661E-01      0.2873620868E+00
          0                 3           2             5    8     1       0.3060758096E-03       5    8    1         0.1660639049E-01      0.3155981649E-01
          0                 4           1             5    8     1       0.8831096708E-04       5    8    1         0.4833784908E-02      0.7347167211E-02

    ------------------------------------------------
       NWT REQUIRED            4 OUTER ITERATIONS 
       AND A TOTAL OF          7 INNER ITERATIONS.
    ------------------------------------------------

 NO OUTPUT CONTROL FOR STRESS PERIOD   39   TIME STEP    4
 
 SOLVING FOR HEAD 
                                                   Max.-Head-Change                         Max.-Flux-Residual
  Residual-Control   Outer-Iter.   Inner-Iter.     Column Row Layer    Maximum-Head-Change  Column Row Layer    Maximum-Flux-Residual          L2-NORM 
          0                 1           2             3    7     1       0.2021847505E-01       6    8    1         0.6276966442E+00      0.2726679006E+01
          0                 2           2             3    7     1      -0.1973854919E-02       6    8    1        -0.6276981135E-01      0.2844173297E+00
          0                 3           2             5    8     1       0.3124574559E-03       5    8    1         0.1693564505E-01      0.3084327491E-01
          0                 4           1             5    8     1       0.9030695438E-04       5    8    1         0.4936514837E-02      0.7124483205E-02

    ------------------------------------------------
       NWT REQUIRED            4 OUTER ITERATIONS 
       AND A TOTAL OF          7 INNER ITERATIONS.
    ------------------------------------------------

 NO OUTPUT CONTROL FOR STRESS PERIOD   39   TIME STEP    5
 
 SOLVING FOR HEAD 
                                                   Max.-Head-Change                         Max.-Flux-Residual
  Residual-Control   Outer-Iter.   Inner-Iter.     Column Row Layer    Maximum-Head-Change  Column Row Layer    Maximum-Flux-Residual          L2-NORM 
          0                 1           2             3    7     1       0.1990399907E-01       6    8    1         0.6210700598E+00      0.2703054110E+01
          0                 2           2             3    7     1      -0.1942334794E-02       6    8    1        -0.6210714952E-01      0.2818752368E+00
          0                 3           2             5    8     1       0.3186000295E-03       5    8    1         0.1725263126E-01      0.3039383062E-01
          0                 4           1             5    8     1       0.9222776330E-04       5    8    1         0.5035389793E-02      0.7003012177E-02

    ------------------------------------------------
       NWT REQUIRED            4 OUTER ITERATIONS 
       AND A TOTAL OF          7 INNER ITERATIONS.
    ------------------------------------------------

 NO OUTPUT CONTROL FOR STRESS PERIOD   39   TIME STEP    6
 
 SOLVING FOR HEAD 
                                                   Max.-Head-Change                         Max.-Flux-Residual
  Residual-Control   Outer-Iter.   Inner-Iter.     Column Row Layer    Maximum-Head-Change  Column Row Layer    Maximum-Flux-Residual          L2-NORM 
          0                 1           2             3    7     1       0.1959858211E-01       6    8    1         0.6146757707E+00      0.2680623016E+01
          0                 2           2             3    7     1      -0.1911711957E-02       5    8    1         0.6292191805E-01      0.2796966573E+00
          0                 3           2             5    8     1       0.3245312164E-03       5    8    1         0.1755886129E-01      0.3018757382E-01
          0                 4           1             5    8     1       0.9408141978E-04       5    8    1         0.5130846890E-02      0.6974423065E-02

    ------------------------------------------------
       NWT REQUIRED            4 OUTER ITERATIONS 
       AND A TOTAL OF          7 INNER ITERATIONS.
    ------------------------------------------------

 NO OUTPUT CONTROL FOR STRESS PERIOD   39   TIME STEP    7
 
 SOLVING FOR HEAD 
                                                   Max.-Head-Change                         Max.-Flux-Residual
  Residual-Control   Outer-Iter.   Inner-Iter.     Column Row Layer    Maximum-Head-Change  Column Row Layer    Maximum-Flux-Residual          L2-NORM 
          0                 1           2             3    7     1       0.1930221643E-01       6    8    1         0.6085118795E+00      0.2659312001E+01
          0                 2           2             3    7     1      -0.1881987038E-02       5    8    1         0.6384122347E-01      0.2778468702E+00
          0                 3           2             5    8     1       0.3302578071E-03       5    8    1         0.1785462545E-01      0.3019764031E-01
          0                 4           1             5    8     1       0.9587046244E-04       5    8    1         0.5223001421E-02      0.7027782414E-02

    ------------------------------------------------
       NWT REQUIRED            4 OUTER ITERATIONS 
       AND A TOTAL OF          7 INNER ITERATIONS.
    ------------------------------------------------

 NO OUTPUT CONTROL FOR STRESS PERIOD   39   TIME STEP    8
 
 SOLVING FOR HEAD 
                                                   Max.-Head-Change                         Max.-Flux-Residual
  Residual-Control   Outer-Iter.   Inner-Iter.     Column Row Layer    Maximum-Head-Change  Column Row Layer    Maximum-Flux-Residual          L2-NORM 
          0                 1           2             3    7     1       0.1901439862E-01       6    8    1         0.6025616644E+00      0.2639030158E+01
          0                 2           2             3    7     1      -0.1853112772E-02       5    8    1         0.6472693099E-01      0.2762909198E+00
          0                 3           2             5    8     1       0.3357726587E-03       5    8    1         0.1813950723E-01      0.3039522085E-01
          0                 4           1             5    8     1       0.9759302284E-04       5    8    1         0.5311743415E-02      0.7150557710E-02

    ------------------------------------------------
       NWT REQUIRED            4 OUTER ITERATIONS 
       AND A TOTAL OF          7 INNER ITERATIONS.
    ------------------------------------------------

 NO OUTPUT CONTROL FOR STRESS PERIOD   39   TIME STEP    9
 
 SOLVING FOR HEAD 
                                                   Max.-Head-Change                         Max.-Flux-Residual
  Residual-Control   Outer-Iter.   Inner-Iter.     Column Row Layer    Maximum-Head-Change  Column Row Layer    Maximum-Flux-Residual          L2-NORM 
          0                 1           2             3    7     1       0.1873511735E-01       6    8    1         0.5968164554E+00      0.2619723191E+01
          0                 2           2             3    7     1      -0.1825088915E-02       5    8    1         0.6557996911E-01      0.2750004288E+00
          0                 3           2             5    8     1       0.3410832059E-03       5    8    1         0.1841386155E-01      0.3075252748E-01
          0                 4           1             5    8     1       0.9925163223E-04       5    8    1         0.5397195437E-02      0.7330286750E-02

    ------------------------------------------------
       NWT REQUIRED            4 OUTER ITERATIONS 
       AND A TOTAL OF          7 INNER ITERATIONS.
    ------------------------------------------------

 NO OUTPUT CONTROL FOR STRESS PERIOD   39   TIME STEP   10
 
 SOLVING FOR HEAD 
                                                   Max.-Head-Change                         Max.-Flux-Residual
  Residual-Control   Outer-Iter.   Inner-Iter.     Column Row Layer    Maximum-Head-Change  Column Row Layer    Maximum-Flux-Residual          L2-NORM 
          0                 1           2             3    7     1       0.1846411681E-01       6    8    1         0.5912677223E+00      0.2601316540E+01
          0                 2           2             3    7     1      -0.1797890781E-02       5    8    1         0.6640354786E-01      0.2739467462E+00
          0                 3           2             5    8     1       0.3462071193E-03       5    8    1         0.1867863938E-01      0.3124267795E-01
          0                 4           1             5    8     1       0.1008515095E-03       5    8    1         0.5479637891E-02      0.7555100393E-02
          0                 5           1             5    8     1       0.2939742125E-04       5    8    1         0.1594884202E-02      0.2204568103E-02

    ------------------------------------------------
       NWT REQUIRED            5 OUTER ITERATIONS 
       AND A TOTAL OF          8 INNER ITERATIONS.
    ------------------------------------------------

 NO OUTPUT CONTROL FOR STRESS PERIOD   39   TIME STEP   11
 
 SOLVING FOR HEAD 
                                                   Max.-Head-Change                         Max.-Flux-Residual
  Residual-Control   Outer-Iter.   Inner-Iter.     Column Row Layer    Maximum-Head-Change  Column Row Layer    Maximum-Flux-Residual          L2-NORM 
          0                 1           2             3    7     1       0.1820112616E-01       6    8    1         0.5859398300E+00      0.2583767683E+01
          0                 2           2             3    7     1      -0.1771490964E-02       5    8    1         0.6717407823E-01      0.2730973388E+00
          0                 3           2             5    8     1       0.3510210512E-03       5    8    1         0.1892706016E-01      0.3183415467E-01
          0                 4           1             5    8     1       0.1023572701E-03       5    8    1         0.5557128101E-02      0.7812006361E-02
          0                 5           1             5    8     1       0.2986712266E-04       5    8    1         0.1619118294E-02      0.2286139991E-02

    ------------------------------------------------
       NWT REQUIRED            5 OUTER ITERATIONS 
       AND A TOTAL OF          8 INNER ITERATIONS.
    ------------------------------------------------

 NO OUTPUT CONTROL FOR STRESS PERIOD   39   TIME STEP   12
 
 SOLVING FOR HEAD 
                                                   Max.-Head-Change                         Max.-Flux-Residual
  Residual-Control   Outer-Iter.   Inner-Iter.     Column Row Layer    Maximum-Head-Change  Column Row Layer    Maximum-Flux-Residual          L2-NORM 
          0                 1           2             3    7     1       0.1794591442E-01       6    8    1         0.5807970327E+00      0.2558428935E+01
          0                 2           2             3    7     1      -0.1745888002E-02       6    8    1        -0.5807977454E-01      0.2636399284E+00
          0                 3           2             4    8     1       0.2134108079E-03       4    8    1         0.1147929514E-01      0.2578191661E-01
          0                 4           1             4    8     1       0.6242335248E-04       4    8    1         0.3381369854E-02      0.5525404853E-02

    ------------------------------------------------
       NWT REQUIRED            4 OUTER ITERATIONS 
       AND A TOTAL OF          7 INNER ITERATIONS.
    ------------------------------------------------

 NO OUTPUT CONTROL FOR STRESS PERIOD   39   TIME STEP   13
 
 SOLVING FOR HEAD 
                                                   Max.-Head-Change                         Max.-Flux-Residual
  Residual-Control   Outer-Iter.   Inner-Iter.     Column Row Layer    Maximum-Head-Change  Column Row Layer    Maximum-Flux-Residual          L2-NORM 
          0                 1           2             3    7     1       0.1769831710E-01       5    8    1        -0.6167445813E+00      0.2613473831E+01
          0                 2           2             5    8     1      -0.2645226203E-02       5    8    1        -0.1449492324E+00      0.2988609312E+00
          0                 3           2             5    8     1      -0.6462559284E-03       5    8    1        -0.3597287270E-01      0.4368310775E-01
          0                 4           1             5    8     1      -0.1577280804E-03       5    8    1        -0.8751651056E-02      0.1006911491E-01
          0                 5           1             5    8     1      -0.3844773713E-04       5    8    1        -0.2136450355E-02      0.2550241251E-02

    ------------------------------------------------
       NWT REQUIRED            5 OUTER ITERATIONS 
       AND A TOTAL OF          8 INNER ITERATIONS.
    ------------------------------------------------

 NO OUTPUT CONTROL FOR STRESS PERIOD   39   TIME STEP   14
 
 SOLVING FOR HEAD 
                                                   Max.-Head-Change                         Max.-Flux-Residual
  Residual-Control   Outer-Iter.   Inner-Iter.     Column Row Layer    Maximum-Head-Change  Column Row Layer    Maximum-Flux-Residual          L2-NORM 
          0                 1           2             3    7     1       0.1745738021E-01       7    8    1         0.5661946490E+00      0.2573137046E+01
          0                 2           2             5    8     1      -0.2330127674E-02       5    8    1        -0.1275889008E+00      0.2886105845E+00
          0                 3           2             5    8     1      -0.5689305472E-03       5    8    1        -0.3169300207E-01      0.4018270343E-01
          0                 4           1             5    8     1      -0.1387474627E-03       5    8    1        -0.7702653372E-02      0.9206709843E-02
          0                 5           1             5    8     1      -0.3378706415E-04       5    8    1        -0.1878904199E-02      0.2357480923E-02

    ------------------------------------------------
       NWT REQUIRED            5 OUTER ITERATIONS 
       AND A TOTAL OF          8 INNER ITERATIONS.
    ------------------------------------------------

 NO OUTPUT CONTROL FOR STRESS PERIOD   39   TIME STEP   15
 
 SOLVING FOR HEAD 
                                                   Max.-Head-Change                         Max.-Flux-Residual
  Residual-Control   Outer-Iter.   Inner-Iter.     Column Row Layer    Maximum-Head-Change  Column Row Layer    Maximum-Flux-Residual          L2-NORM 
          0                 1           2             3    7     1       0.1722323344E-01       7    8    1         0.5626413891E+00      0.2537332819E+01
          0                 2           2             5    8     1      -0.2044874186E-02       5    8    1        -0.1118827318E+00      0.2800655886E+00
          0                 3           2             5    8     1      -0.4988509456E-03       5    8    1        -0.2781748313E-01      0.3726599696E-01
          0                 4           1             5    8     1      -0.1215228103E-03       5    8    1        -0.6751627060E-02      0.8502374676E-02
          0                 5           1             5    8     1      -0.2955102120E-04       5    8    1        -0.1645091715E-02      0.2207145188E-02

    ------------------------------------------------
       NWT REQUIRED            5 OUTER ITERATIONS 
       AND A TOTAL OF          8 INNER ITERATIONS.
    ------------------------------------------------

 NO OUTPUT CONTROL FOR STRESS PERIOD   39   TIME STEP   16
 
 SOLVING FOR HEAD 
                                                   Max.-Head-Change                         Max.-Flux-Residual
  Residual-Control   Outer-Iter.   Inner-Iter.     Column Row Layer    Maximum-Head-Change  Column Row Layer    Maximum-Flux-Residual          L2-NORM 
          0                 1           2             3    7     1       0.1699554194E-01       7    8    1         0.5589464020E+00      0.2505338987E+01
          0                 2           2             5    8     1      -0.1786289461E-02       5    8    1        -0.9765400749E-01      0.2729696861E+00
          0                 3           2             5    8     1      -0.4352511133E-03       5    8    1        -0.2430335162E-01      0.3488585587E-01
          0                 4           1             5    8     1      -0.1058699610E-03       5    8    1        -0.5888236137E-02      0.7946318820E-02
          0                 5           1             5    8     1      -0.2569550069E-04       5    8    1        -0.1432529886E-02      0.2096226969E-02

    ------------------------------------------------
       NWT REQUIRED            5 OUTER ITERATIONS 
       AND A TOTAL OF          8 INNER ITERATIONS.
    ------------------------------------------------

 NO OUTPUT CONTROL FOR STRESS PERIOD   39   TIME STEP   17
 
 SOLVING FOR HEAD 
                                                   Max.-Head-Change                         Max.-Flux-Residual
  Residual-Control   Outer-Iter.   Inner-Iter.     Column Row Layer    Maximum-Head-Change  Column Row Layer    Maximum-Flux-Residual          L2-NORM 
          0                 1           2             3    7     1       0.1677377144E-01       7    8    1         0.5551313460E+00      0.2476554385E+01
          0                 2           2             3    7     1      -0.1628876405E-02       5    8    1        -0.8475006004E-01      0.2671008889E+00
          0                 3           2             5    8     1      -0.3774701275E-03       5    8    1        -0.2111351359E-01      0.3299690122E-01
          0                 4           1             5    8     1      -0.9163017661E-04       5    8    1        -0.5103564983E-02      0.7528257541E-02

    ------------------------------------------------
       NWT REQUIRED            4 OUTER ITERATIONS 
       AND A TOTAL OF          7 INNER ITERATIONS.
    ------------------------------------------------

 NO OUTPUT CONTROL FOR STRESS PERIOD   39   TIME STEP   18
 
 SOLVING FOR HEAD 
                                                   Max.-Head-Change                         Max.-Flux-Residual
  Residual-Control   Outer-Iter.   Inner-Iter.     Column Row Layer    Maximum-Head-Change  Column Row Layer    Maximum-Flux-Residual          L2-NORM 
          0                 1           2             3    7     1       0.1655782885E-01       7    8    1         0.5512309137E+00      0.2450514076E+01
          0                 2           2             3    7     1      -0.1607380888E-02       5    8    1        -0.7305925639E-01      0.2622821191E+00
          0                 3           2             5    8     1      -0.3250235084E-03       5    8    1        -0.1822079595E-01      0.3156098264E-01
          0                 4           1             5    8     1      -0.7868691824E-04       5    8    1        -0.4391075950E-02      0.7238953183E-02

    ------------------------------------------------
       NWT REQUIRED            4 OUTER ITERATIONS 
       AND A TOTAL OF          7 INNER ITERATIONS.
    ------------------------------------------------

 NO OUTPUT CONTROL FOR STRESS PERIOD   39   TIME STEP   19
 
 SOLVING FOR HEAD 
                                                   Max.-Head-Change                         Max.-Flux-Residual
  Residual-Control   Outer-Iter.   Inner-Iter.     Column Row Layer    Maximum-Head-Change  Column Row Layer    Maximum-Flux-Residual          L2-NORM 
          0                 1           2             3    7     1       0.1634754271E-01       7    8    1         0.5472693868E+00      0.2426783982E+01
          0                 2           2             3    7     1      -0.1586460205E-02       5    8    1        -0.6242917081E-01      0.2583325368E+00
          0                 3           2             5    8     1      -0.2772496521E-03       5    8    1        -0.1558812538E-01      0.3052125723E-01
          0                 4           1             5    6     1       0.7679403121E-04       5    6    1         0.4187007106E-02      0.7062034067E-02

    ------------------------------------------------
       NWT REQUIRED            4 OUTER ITERATIONS 
       AND A TOTAL OF          7 INNER ITERATIONS.
    ------------------------------------------------

 NO OUTPUT CONTROL FOR STRESS PERIOD   39   TIME STEP   20
 
 SOLVING FOR HEAD 
                                                   Max.-Head-Change                         Max.-Flux-Residual
  Residual-Control   Outer-Iter.   Inner-Iter.     Column Row Layer    Maximum-Head-Change  Column Row Layer    Maximum-Flux-Residual          L2-NORM 
          0                 1           2             3    7     1       0.1614245670E-01       7    8    1         0.5432679634E+00      0.2405047094E+01
          0                 2           2             3    7     1      -0.1566065931E-02       7    8    1        -0.5432692969E-01      0.2551147978E+00
          0                 3           2             5    6     1       0.2708886091E-03       5    6    1         0.1463840341E-01      0.2982903262E-01
          0                 4           1             5    6     1       0.7863777892E-04       5    6    1         0.4284327901E-02      0.6982544375E-02

    ------------------------------------------------
       NWT REQUIRED            4 OUTER ITERATIONS 
       AND A TOTAL OF          7 INNER ITERATIONS.
    ------------------------------------------------

 NO OUTPUT CONTROL FOR STRESS PERIOD   39   TIME STEP   21
 
 SOLVING FOR HEAD 
                                                   Max.-Head-Change                         Max.-Flux-Residual
  Residual-Control   Outer-Iter.   Inner-Iter.     Column Row Layer    Maximum-Head-Change  Column Row Layer    Maximum-Flux-Residual          L2-NORM 
          0                 1           2             3    7     1       0.1594286376E-01       7    8    1         0.5392445811E+00      0.2385016390E+01
          0                 2           2             3    7     1      -0.1546223671E-02       7    8    1        -0.5392459010E-01      0.2525113625E+00
          0                 3           2             5    6     1       0.2766821842E-03       5    6    1         0.1494462001E-01      0.2943626477E-01
          0                 4           1             5    6     1       0.8039501772E-04       5    6    1         0.4376829774E-02      0.6985185510E-02

    ------------------------------------------------
       NWT REQUIRED            4 OUTER ITERATIONS 
       AND A TOTAL OF          7 INNER ITERATIONS.
    ------------------------------------------------

 NO OUTPUT CONTROL FOR STRESS PERIOD   39   TIME STEP   22
 
 SOLVING FOR HEAD 
                                                   Max.-Head-Change                         Max.-Flux-Residual
  Residual-Control   Outer-Iter.   Inner-Iter.     Column Row Layer    Maximum-Head-Change  Column Row Layer    Maximum-Flux-Residual          L2-NORM 
          0                 1           2             3    7     1       0.1574809199E-01       7    8    1         0.5352091555E+00      0.2366468975E+01
          0                 2           2             3    7     1      -0.1526866224E-02       5    6    1         0.5439034671E-01      0.2504227178E+00
          0                 3           2             5    6     1       0.2821932714E-03       5    6    1         0.1523509402E-01      0.2929499211E-01
          0                 4           1             5    6     1       0.8207219784E-04       5    6    1         0.4464903239E-02      0.7054519389E-02

    ------------------------------------------------
       NWT REQUIRED            4 OUTER ITERATIONS 
       AND A TOTAL OF          7 INNER ITERATIONS.
    ------------------------------------------------

 NO OUTPUT CONTROL FOR STRESS PERIOD   39   TIME STEP   23
 
 SOLVING FOR HEAD 
                                                   Max.-Head-Change                         Max.-Flux-Residual
  Residual-Control   Outer-Iter.   Inner-Iter.     Column Row Layer    Maximum-Head-Change  Column Row Layer    Maximum-Flux-Residual          L2-NORM 
          0                 1           2             3    7     1       0.1555846478E-01       7    8    1         0.5311805056E+00      0.2349224789E+01
          0                 2           2             3    7     1      -0.1508022625E-02       5    6    1         0.5528557986E-01      0.2487653830E+00
          0                 3           2             5    6     1       0.2874532356E-03       5    6    1         0.1551167870E-01      0.2936038430E-01
          0                 4           1             5    6     1       0.8367744966E-04       5    6    1         0.4549029284E-02      0.7176388800E-02

    ------------------------------------------------
       NWT REQUIRED            4 OUTER ITERATIONS 
       AND A TOTAL OF          7 INNER ITERATIONS.
    ------------------------------------------------

 NO OUTPUT CONTROL FOR STRESS PERIOD   39   TIME STEP   24
 
 SOLVING FOR HEAD 
                                                   Max.-Head-Change                         Max.-Flux-Residual
  Residual-Control   Outer-Iter.   Inner-Iter.     Column Row Layer    Maximum-Head-Change  Column Row Layer    Maximum-Flux-Residual          L2-NORM 
          0                 1           2             3    7     1       0.1537357531E-01       7    8    1         0.5271753557E+00      0.2333120780E+01
          0                 2           2             3    7     1      -0.1489652220E-02       5    6    1         0.5614028582E-01      0.2474699235E+00
          0                 3           2             5    6     1       0.2925006042E-03       5    6    1         0.1577658720E-01      0.2959325137E-01
          0                 4           1             5    6     1       0.8522119517E-04       5    6    1         0.4629805117E-02      0.7338812240E-02

    ------------------------------------------------
       NWT REQUIRED            4 OUTER ITERATIONS 
       AND A TOTAL OF          7 INNER ITERATIONS.
    ------------------------------------------------

 NO OUTPUT CONTROL FOR STRESS PERIOD   39   TIME STEP   25
 
 SOLVING FOR HEAD 
                                                   Max.-Head-Change                         Max.-Flux-Residual
  Residual-Control   Outer-Iter.   Inner-Iter.     Column Row Layer    Maximum-Head-Change  Column Row Layer    Maximum-Flux-Residual          L2-NORM 
          0                 1           2             3    7     1       0.1519077025E-01       4    8    1        -0.6529264474E+00      0.2405863985E+01
          0                 2           2             4    8     1      -0.2984142509E-02       4    8    1        -0.1610613537E+00      0.2921972071E+00
          0                 3           2             4    8     1      -0.7514157017E-03       4    8    1        -0.4085883257E-01      0.4950162326E-01
          0                 4           2             4    8     1      -0.1892030095E-03       4    8    1        -0.1026884394E-01      0.1227892718E-01
          0                 5           1             4    8     1      -0.4763495341E-04       4    8    1        -0.2586267472E-02      0.3242962469E-02

    ------------------------------------------------
       NWT REQUIRED            5 OUTER ITERATIONS 
       AND A TOTAL OF          9 INNER ITERATIONS.
    ------------------------------------------------

 NO OUTPUT CONTROL FOR STRESS PERIOD   39   TIME STEP   26
 
 SOLVING FOR HEAD 
                                                   Max.-Head-Change                         Max.-Flux-Residual
  Residual-Control   Outer-Iter.   Inner-Iter.     Column Row Layer    Maximum-Head-Change  Column Row Layer    Maximum-Flux-Residual          L2-NORM 
          0                 1           2             3    7     1       0.1500636269E-01       4    8    1        -0.6901928072E+00      0.2398832625E+01
          0                 2           2             4    8     1      -0.3158959604E-02       4    8    1        -0.1705654716E+00      0.2962483890E+00
          0                 3           2             4    8     1      -0.7955998266E-03       4    8    1        -0.4324814519E-01      0.5152638898E-01
          0                 4           2             4    8     1      -0.2003891431E-03       4    8    1        -0.1087362893E-01      0.1282183261E-01
          0                 5           1             4    8     1      -0.5047217169E-04       4    8    1        -0.2739429015E-02      0.3378694892E-02

    ------------------------------------------------
       NWT REQUIRED            5 OUTER ITERATIONS 
       AND A TOTAL OF          9 INNER ITERATIONS.
    ------------------------------------------------

 NO OUTPUT CONTROL FOR STRESS PERIOD   39   TIME STEP   27
 
 SOLVING FOR HEAD 
                                                   Max.-Head-Change                         Max.-Flux-Residual
  Residual-Control   Outer-Iter.   Inner-Iter.     Column Row Layer    Maximum-Head-Change  Column Row Layer    Maximum-Flux-Residual          L2-NORM 
          0                 1           2             3    7     1       0.1482189466E-01       4    8    1        -0.6378712775E+00      0.2366990656E+01
          0                 2           2             4    8     1      -0.2917890801E-02       4    8    1        -0.1575050689E+00      0.2871724858E+00
          0                 3           2             4    8     1      -0.7349379790E-03       4    8    1        -0.3995100359E-01      0.4847996166E-01
          0                 4           2             4    8     1      -0.1851326175E-03       4    8    1        -0.1004467243E-01      0.1200351390E-01
          0                 5           1             4    8     1      -0.4663861168E-04       4    8    1        -0.2530964188E-02      0.3164001389E-02

    ------------------------------------------------
       NWT REQUIRED            5 OUTER ITERATIONS 
       AND A TOTAL OF          9 INNER ITERATIONS.
    ------------------------------------------------

 NO OUTPUT CONTROL FOR STRESS PERIOD   39   TIME STEP   28
 
 SOLVING FOR HEAD 
                                                   Max.-Head-Change                         Max.-Flux-Residual
  Residual-Control   Outer-Iter.   Inner-Iter.     Column Row Layer    Maximum-Head-Change  Column Row Layer    Maximum-Flux-Residual          L2-NORM 
          0                 1           2             3    7     1       0.1463571083E-01       5    7    1        -0.7557532927E+00      0.2455611831E+01
          0                 2           2             5    7     1      -0.3296350736E-02       5    7    1        -0.1821000633E+00      0.3319185095E+00
          0                 3           2             5    7     1      -0.8059539583E-03       5    7    1        -0.4472442999E-01      0.6338360574E-01
          0                 4           2             5    7     1      -0.1971883866E-03       5    7    1        -0.1092274931E-01      0.1548243003E-01
          0                 5           1             5    7     1      -0.4827515451E-04       5    7    1        -0.2673250677E-02      0.3926556526E-02

    ------------------------------------------------
       NWT REQUIRED            5 OUTER ITERATIONS 
       AND A TOTAL OF          9 INNER ITERATIONS.
    ------------------------------------------------

 NO OUTPUT CONTROL FOR STRESS PERIOD   39   TIME STEP   29
 
 SOLVING FOR HEAD 
                                                   Max.-Head-Change                         Max.-Flux-Residual
  Residual-Control   Outer-Iter.   Inner-Iter.     Column Row Layer    Maximum-Head-Change  Column Row Layer    Maximum-Flux-Residual          L2-NORM 
          0                 1           2             3    7     1       0.1444535471E-01       5    7    1        -0.6797911529E+00      0.2460237388E+01
          0                 2           2             5    7     1      -0.2965972337E-02       5    7    1        -0.1636782009E+00      0.3196585824E+00
          0                 3           2             5    7     1      -0.7258292877E-03       5    7    1        -0.4025668340E-01      0.5857521874E-01
          0                 4           2             5    7     1      -0.1777556214E-03       5    7    1        -0.9838734803E-02      0.1427241249E-01
          0                 5           1             5    7     1      -0.4356555894E-04       5    7    1        -0.2410363215E-02      0.3637813963E-02

    ------------------------------------------------
       NWT REQUIRED            5 OUTER ITERATIONS 
       AND A TOTAL OF          9 INNER ITERATIONS.
    ------------------------------------------------

 NO OUTPUT CONTROL FOR STRESS PERIOD   39   TIME STEP   30



 STREAM LISTING     PERIOD     39   STEP       30

 LAYER ROW COL. STREAM  RCH.  FLOW INTO     FLOW TO   FLOW OUT OF   OVRLND.     DIRECT     STREAM       STREAM     STREAM     STREAM   STREAMBED  STREAMBED
                SEG.NO.  NO.  STRM. RCH.    AQUIFER    STRM. RCH.    RUNOFF     PRECIP       ET          HEAD       DEPTH      WIDTH   CONDCTNC.   GRADIENT

   1    1    1     1     1    1.6375E+01  1.9673E-01   1.6178E+01  0.000E+00  0.000E+00  0.000E+00  1.09408E+03  1.036E+00  1.083E+01  4.874E-02  1.345E+00
   1    2    2     1     2    1.6178E+01  3.0333E-01   1.5875E+01  0.000E+00  0.000E+00  0.000E+00  1.08909E+03  1.032E+00  1.075E+01  7.524E-02  1.344E+00
   1    3    3     1     3    1.5875E+01  2.5739E-01   1.5618E+01  0.000E+00  0.000E+00  0.000E+00  1.08345E+03  1.026E+00  1.065E+01  6.392E-02  1.342E+00
   1    3    4     1     4    1.5618E+01  2.3595E-01   1.5382E+01  0.000E+00  0.000E+00  0.000E+00  1.07843E+03  1.022E+00  1.057E+01  5.867E-02  1.341E+00
   1    4    5     2     1    1.3382E+01  2.9830E-01   1.3084E+01  0.000E+00  0.000E+00  0.000E+00  1.07276E+03  8.244E-01  1.200E+01  7.800E-02  1.275E+00
   1    5    6     2     2    1.3084E+01  2.2887E-01   1.2855E+01  0.000E+00  0.000E+00  0.000E+00  1.06732E+03  8.145E-01  1.200E+01  6.000E-02  1.271E+00
   1    6    6     2     3    1.2855E+01  2.2835E-01   1.2626E+01  0.000E+00  0.000E+00  0.000E+00  1.06260E+03  8.059E-01  1.200E+01  6.000E-02  1.269E+00
   1    7    6     2     4    1.2626E+01  2.2783E-01   1.2398E+01  0.000E+00  0.000E+00  0.000E+00  1.05787E+03  7.972E-01  1.200E+01  6.000E-02  1.266E+00
   1    8    6     2     5    1.2398E+01  2.2731E-01   1.2171E+01  0.000E+00  0.000E+00  0.000E+00  1.05315E+03  7.884E-01  1.200E+01  6.000E-02  1.263E+00
   1    3    5     3     1    2.0000E+00  2.8252E-01   1.7175E+00  0.000E+00  0.000E+00  0.000E+00  1.07555E+03  1.909E+00  9.636E+00  7.227E-02  1.955E+00
   1    3    6     3     2    1.7175E+00  2.4905E-01   1.4684E+00  0.000E+00  0.000E+00  0.000E+00  1.07264E+03  1.727E+00  8.909E+00  6.682E-02  1.864E+00
   1    3    7     3     3    1.4684E+00  1.9718E-01   1.2712E+00  0.000E+00  0.000E+00  0.000E+00  1.06987E+03  1.555E+00  8.218E+00  5.547E-02  1.777E+00
   1    4    8     3     4    1.2712E+00  2.2567E-01   1.0456E+00  0.000E+00  0.000E+00  0.000E+00  1.06682E+03  1.364E+00  7.455E+00  6.709E-02  1.682E+00
   1    5    8     3     5    1.0456E+00  1.5790E-01   8.8768E-01  0.000E+00  0.000E+00  0.000E+00  1.06362E+03  1.164E+00  6.655E+00  4.991E-02  1.582E+00
   1    6    8     3     6    8.8768E-01  5.5980E-02   8.3170E-01  0.000E+00  0.000E+00  0.000E+00  1.06158E+03  1.036E+00  6.145E+00  1.844E-02  1.518E+00
   1    5   10     4     1    1.0000E+01  9.0919E-02   9.9091E+00  0.000E+00  0.000E+00  0.000E+00  1.07836E+03  6.368E-01  1.000E+01  2.500E-02  1.212E+00
   1    5    9     4     2    9.9091E+00  1.8158E-01   9.7275E+00  0.000E+00  0.000E+00  0.000E+00  1.07154E+03  6.315E-01  1.000E+01  5.000E-02  1.211E+00
   1    6    8     4     3    9.7275E+00  1.2689E-01   9.6006E+00  0.000E+00  0.000E+00  0.000E+00  1.06381E+03  6.256E-01  1.000E+01  3.500E-02  1.209E+00
   1    6    8     5     1    1.0432E+01  2.2686E-01   1.0205E+01  0.000E+00  0.000E+00  0.000E+00  1.05868E+03  6.790E-01  1.542E+01  6.166E-02  1.226E+00
   1    7    7     5     2    1.0205E+01  2.7894E-01   9.9265E+00  0.000E+00  0.000E+00  0.000E+00  1.05417E+03  6.732E-01  1.519E+01  7.594E-02  1.224E+00
   1    8    7     5     3    9.9265E+00  1.9221E-01   9.7343E+00  0.000E+00  0.000E+00  0.000E+00  1.04992E+03  6.676E-01  1.497E+01  5.241E-02  1.223E+00
   1    8    6     5     4    9.7343E+00  1.3577E-01   9.5985E+00  0.000E+00  0.000E+00  0.000E+00  1.04691E+03  6.637E-01  1.482E+01  3.706E-02  1.221E+00
   1    9    6     6     1    2.1770E+01  2.4720E-01   2.1522E+01  0.000E+00  0.000E+00  0.000E+00  1.04385E+03  1.120E+00  1.200E+01  6.000E-02  1.373E+00
   1   10    7     6     2    2.1522E+01  2.4674E-01   2.1276E+01  0.000E+00  0.000E+00  0.000E+00  1.03929E+03  1.112E+00  1.200E+01  6.000E-02  1.371E+00
   1   11    7     6     3    2.1276E+01  2.4627E-01   2.1029E+01  0.000E+00  0.000E+00  0.000E+00  1.03474E+03  1.105E+00  1.200E+01  6.000E-02  1.368E+00
   1   12    7     6     4    2.1029E+01  2.4581E-01   2.0784E+01  0.000E+00  0.000E+00  0.000E+00  1.03019E+03  1.097E+00  1.200E+01  6.000E-02  1.366E+00
   1   13    7     6     5    2.0784E+01  1.8195E-02   2.0765E+01  0.000E+00  0.000E+00  0.000E+00  1.02700E+03  1.093E+00  1.200E+01  2.400E-02  2.527E-01
   1   14    9     7     1    1.5000E+02  1.4218E+00   1.4858E+02  0.000E+00  0.000E+00  0.000E+00  1.03987E+03  2.287E+00  5.529E+01  5.593E-01  8.474E-01
   1   13    8     7     2    1.4858E+02  2.1032E+00   1.4648E+02  0.000E+00  0.000E+00  0.000E+00  1.03478E+03  2.278E+00  5.525E+01  6.147E-01  1.140E+00
   1   13    7     7     3    1.4648E+02  1.9223E+00   1.4455E+02  0.000E+00  0.000E+00  0.000E+00  1.02969E+03  2.267E+00  5.520E+01  5.583E-01  1.148E+00
   1   13    6     8     1    1.6532E+02  1.3303E+00   1.6399E+02  0.000E+00  0.000E+00  0.000E+00  1.02479E+03  2.917E+00  4.230E+01  4.310E-01  1.029E+00
   1   13    5     8     2    1.6399E+02  5.4768E-01   1.6344E+02  0.000E+00  0.000E+00  0.000E+00  1.01854E+03  2.911E+00  4.221E+01  4.301E-01  4.245E-01
   1   13    4     8     3    1.6344E+02 -1.0874E+00   1.6453E+02  0.000E+00  0.000E+00  0.000E+00  1.01229E+03  2.913E+00  4.223E+01  4.304E+00 -8.422E-02
   1   13    3     8     4    1.6453E+02 -2.9104E+00   1.6744E+02  0.000E+00  0.000E+00  0.000E+00  1.00605E+03  2.926E+00  4.242E+01  4.323E+00 -2.244E-01
   1   13    2     8     5    1.6744E+02 -2.2700E+00   1.6971E+02  0.000E+00  0.000E+00  0.000E+00  9.99818E+02  2.943E+00  4.267E+01  4.348E+00 -1.740E-01
   1   13    1     8     6    1.6971E+02 -1.8521E+00   1.7156E+02  0.000E+00  0.000E+00  0.000E+00  9.94831E+02  2.956E+00  4.287E+01  2.621E+00 -2.356E-01
   1    8    6     9     1    0.0000E+00  0.0000E+00   0.0000E+00  0.000E+00  0.000E+00  0.000E+00  1.07875E+03  0.000E+00  4.000E+00  0.000E+00  1.000E+00
   1    8    5     9     2    0.0000E+00  0.0000E+00   0.0000E+00  0.000E+00  0.000E+00  0.000E+00  1.07825E+03  0.000E+00  4.000E+00  0.000E+00  1.000E+00





UNSATURATED ZONE PACKAGE VOLUMETRIC BUDGET FOR  TIME STEP    30 STRESS PERIOD   39
  ------------------------------------------------------------------------------



     CUMULATIVE VOLUMES      L**3       RATES FOR THIS TIME STEP      L**3/T
     ------------------                 ------------------------

           IN:                                      IN:
           ---                                      ---
        INFILTRATION =  9915774485.3910          INFILTRATION =           0.8475

          OUT:                                     OUT:
          ----                                     ----
              UZF ET =  1290178303.4468                UZF ET =           0.7950
        UZF RECHARGE =  8188309847.4412          UZF RECHARGE =           6.2825

            IN - OUT =   437286334.5030              IN - OUT =          -6.2300

          STORAGE:                                 STORAGE:
          --------                                 --------
      STORAGE CHANGE =   438410206.6483        STORAGE CHANGE =          -6.2300

 PERCENT DISCREPANCY IS DIFFERENCE BETWEEN IN-OUT MINUS CHANGE IN STORAGE
 DIVIDED BY THE AVERAGE OF IN AND OUT TIMES 100

 PERCENT DISCREPANCY =          -0.00     PERCENT DISCREPANCY =           0.00






1
  VOLUMETRIC BUDGET FOR AGRICULTURAL FIELDS AT  END OF TIME STEP   30, STRESS PERIOD  39
  ------------------------------------------------------------------------------

     CUMULATIVE VOLUMES      L**3       RATES FOR THIS TIME STEP      L**3/T
     ------------------                 ------------------------

           IN:                                      IN:
           ---                                      ---
               AG WELLS  =  9374535680.0000                 AG WELLS  =           0.0000
      DIVERSION SEGMENTS =   456493472.0000        DIVERSION SEGMENTS =           0.0000
           GW IRRIGATION =           0.0000             GW IRRIGATION =           0.0000
           SW IRRIGATION =           0.0000             SW IRRIGATION =           0.0000
        SYSTEM LOSSES GW =           0.0000          SYSTEM LOSSES GW =           0.0000
        SYSTEM LOSSES SW =           0.0000          SYSTEM LOSSES SW =           0.0000

                TOTAL IN =  9831028736.0000                  TOTAL IN =           0.0000

          OUT:                                     OUT:
          ----                                     ----
               AG WELLS  =           0.0000                 AG WELLS  =           0.0000
      DIVERSION SEGMENTS =           0.0000        DIVERSION SEGMENTS =           0.0000
           GW IRRIGATION =  9374535680.0000             GW IRRIGATION =           0.0000
           SW IRRIGATION =   456501856.0000             SW IRRIGATION =           0.0000
        SYSTEM LOSSES GW =           0.0000          SYSTEM LOSSES GW =           0.0000
        SYSTEM LOSSES SW =           0.0000          SYSTEM LOSSES SW =           0.0000

               TOTAL OUT =  9831037952.0000                 TOTAL OUT =           0.0000

                IN - OUT =       -9216.0000                  IN - OUT =           0.0000

     PERCENT DISCREPANCY =          -0.00         PERCENT DISCREPANCY =           0.00



1
  VOLUMETRIC BUDGET FOR ENTIRE MODEL AT END OF TIME STEP   30, STRESS PERIOD  39
  ------------------------------------------------------------------------------

     CUMULATIVE VOLUMES      L**3       RATES FOR THIS TIME STEP      L**3/T
     ------------------                 ------------------------

           IN:                                      IN:
           ---                                      ---
             STORAGE     =  8186752000.0000               STORAGE     =           3.6367
       CONSTANT HEAD     =           0.0000         CONSTANT HEAD     =           0.0000
     HEAD DEP BOUNDS     =    28939906.0000       HEAD DEP BOUNDS     =           0.2916
      STREAM LEAKAGE     =  1227693568.0000        STREAM LEAKAGE     =          12.9350
        UZF RECHARGE     =  8188310528.0000          UZF RECHARGE     =           6.2825
               GW ET     =           0.0000                 GW ET     =           0.0000
     SURFACE LEAKAGE     =           0.0000       SURFACE LEAKAGE     =           0.0000
           AG WELLS      =           0.0000             AG WELLS      =           0.0000

                TOTAL IN = 17631694848.0000                  TOTAL IN =          23.1458

          OUT:                                     OUT:
          ----                                     ----
             STORAGE     =  7289288704.0000               STORAGE     =          14.7401
       CONSTANT HEAD     =           0.0000         CONSTANT HEAD     =           0.0000
     HEAD DEP BOUNDS     =    28778042.0000       HEAD DEP BOUNDS     =           0.2864
      STREAM LEAKAGE     =   938947968.0000        STREAM LEAKAGE     =           8.1200
        UZF RECHARGE     =           0.0000          UZF RECHARGE     =           0.0000
               GW ET     =           0.0000                 GW ET     =           0.0000
     SURFACE LEAKAGE     =           0.0000       SURFACE LEAKAGE     =           0.0000
           AG WELLS      =  9374535680.0000             AG WELLS      =           0.0000

               TOTAL OUT = 17631551488.0000                 TOTAL OUT =          23.1466

                IN - OUT =      143360.0000                  IN - OUT =      -7.9155E-04

     PERCENT DISCREPANCY =           0.00         PERCENT DISCREPANCY =          -0.00






         TIME SUMMARY AT END OF TIME STEP   30 IN STRESS PERIOD   39
                    SECONDS     MINUTES      HOURS       DAYS        YEARS
                    -----------------------------------------------------------
   TIME STEP LENGTH  87667.      1461.1      24.352      1.0147     2.77799E-03
 STRESS PERIOD TIME 2.63000E+06  43833.      730.56      30.440     8.33397E-02
         TOTAL TIME 1.00026E+08 1.66710E+06  27785.      1157.7      3.1696    
1
1
                            STRESS PERIOD NO.   40, LENGTH =   2630000.    
                            -----------------------------------------------

                              NUMBER OF TIME STEPS =    30

                               MULTIPLIER FOR DELT =     1.000

                            INITIAL TIME STEP SIZE =   87666.66    

 REUSING NON-PARAMETER GHB CELLS FROM LAST STRESS PERIOD

      2 GHB CELLS

 REUSING STREAM SEGMENT DATA FROM LAST STRESS PERIOD



            AREAL INFILTRATION RATE
 READING ON UNIT   19 WITH FORMAT: (FREE)              

            1           2           3           4           5           6           7           8           9          10
 ........................................................................................................................
   1   1.0000E-10  2.0000E-10   0.000       0.000       0.000       0.000       0.000       0.000       0.000       0.000    
   2   2.0000E-10  1.0000E-10  2.0000E-10   0.000       0.000      8.0000E-10  8.0000E-10  5.0000E-10   0.000       0.000    
   3    0.000      5.0000E-10  1.0000E-10  1.0000E-10  8.0000E-10  8.0000E-10  5.0000E-10  5.0000E-10   0.000       0.000    
   4   8.0000E-10  5.0000E-10  1.0000E-10  1.0000E-10  1.0000E-10  1.0000E-10  1.0000E-10  1.0000E-10  2.0000E-10   0.000    
   5   8.0000E-10  5.0000E-10  1.0000E-10  1.0000E-10  1.0000E-10  1.0000E-10  1.0000E-10  1.0000E-10  1.0000E-10  1.0000E-10
   6   8.0000E-10  5.0000E-10  5.0000E-10  2.0000E-10  2.0000E-10  1.0000E-10  1.0000E-10  1.0000E-10  1.0000E-10  5.0000E-10
   7   8.0000E-10  5.0000E-10  5.0000E-10  2.0000E-10  2.0000E-10  1.0000E-10  1.0000E-10  2.0000E-10  2.0000E-10   0.000    
   8    0.000      5.0000E-10  5.0000E-10  2.0000E-10  2.0000E-10  1.0000E-10  1.0000E-10  2.0000E-10  5.0000E-10   0.000    
   9    0.000      5.0000E-10  5.0000E-10  2.0000E-10  2.0000E-10  1.0000E-10  1.0000E-10  2.0000E-10  5.0000E-10   0.000    
  10    0.000      5.0000E-10  5.0000E-10  2.0000E-10  2.0000E-10  1.0000E-10  1.0000E-10  2.0000E-10  5.0000E-10  8.0000E-10
  11    0.000      1.0000E-10  1.0000E-10  1.0000E-10  1.0000E-10  1.0000E-10  1.0000E-10  2.0000E-10  5.0000E-10   0.000    
  12   1.0000E-10  1.0000E-10  1.0000E-10  1.0000E-10  1.0000E-10  1.0000E-10  1.0000E-10  1.0000E-10  2.0000E-10   0.000    
  13   1.0000E-10  1.0000E-10  2.0000E-10  2.0000E-10  2.0000E-10  2.0000E-10  2.0000E-10  1.0000E-10  1.0000E-10   0.000    
  14    0.000      2.0000E-10  5.0000E-10  5.0000E-10  5.0000E-10  5.0000E-10  5.0000E-10  2.0000E-10  1.0000E-10   0.000    
  15    0.000       0.000      8.0000E-10  8.0000E-10  8.0000E-10  8.0000E-10   0.000       0.000       0.000       0.000    

                  ET RATE =  5.000000E-10

 USING ET EXTINCTION DEPTH FROM PREVIOUS STRESS PERIOD. CURRENT PERIOD IS:      40

 USING EXTINCTION WATER CONTENT FROM PREVIOUS STRESS PERIOD. CURRENT PERIOD IS:      40

 USING AIR ENTRY PRESSURE FROM PREVIOUS STRESS PERIOD. CURRENT PERIOD IS:      40

 USING ROOT PRESSURE HEAD FROM PREVIOUS STRESS PERIOD. CURRENT PERIOD IS:      40

 USING ROOT ACTIVITY FROM PREVIOUS STRESS PERIOD. CURRENT PERIOD IS:      40

 PROCESSING AG STRESS PERIOD DATA

 READING AG STRESS PERIOD DATA

 READING IRRIGATION SEGMENT

 READING IRRIGATION WELL

 READING SUPPLEMENTAL WELL

 END PROCESSING AG STRESS PERIOD DATA OPTIONS
 
 SOLVING FOR HEAD 
                                                   Max.-Head-Change                         Max.-Flux-Residual
  Residual-Control   Outer-Iter.   Inner-Iter.     Column Row Layer    Maximum-Head-Change  Column Row Layer    Maximum-Flux-Residual          L2-NORM 
          0                 1           2             3    7     1       0.1425304213E-01       4   13    1         0.6970676856E+00      0.2724187129E+01
          0                 2           2             5    7     1      -0.2665959089E-02       5    7    1        -0.1469498805E+00      0.3293424209E+00
          0                 3           2             5    7     1      -0.6528908628E-03       5    7    1        -0.3619901409E-01      0.5484012169E-01
          0                 4           2             5    7     1      -0.1600216982E-03       5    7    1        -0.8852177063E-02      0.1319324658E-01
          0                 5           1             5    7     1      -0.3925161140E-04       5    7    1        -0.2170630582E-02      0.3378166407E-02

    ------------------------------------------------
       NWT REQUIRED            5 OUTER ITERATIONS 
       AND A TOTAL OF          9 INNER ITERATIONS.
    ------------------------------------------------

 NO OUTPUT CONTROL FOR STRESS PERIOD   40   TIME STEP    1
 
 SOLVING FOR HEAD 
                                                   Max.-Head-Change                         Max.-Flux-Residual
  Residual-Control   Outer-Iter.   Inner-Iter.     Column Row Layer    Maximum-Head-Change  Column Row Layer    Maximum-Flux-Residual          L2-NORM 
          0                 1           2             3    7     1       0.1405979964E-01       4   13    1         0.6319024629E+00      0.2650683810E+01
          0                 2           2             5    7     1      -0.2395491398E-02       5    7    1        -0.1319419716E+00      0.3149070332E+00
          0                 3           2             5    7     1      -0.5870068985E-03       5    7    1        -0.3253514064E-01      0.5090992709E-01
          0                 4           2             5    7     1      -0.1439650292E-03       5    7    1        -0.7960176967E-02      0.1222603563E-01
          0                 5           1             5    7     1      -0.3533661599E-04       5    7    1        -0.1953194047E-02      0.3147393211E-02

    ------------------------------------------------
       NWT REQUIRED            5 OUTER ITERATIONS 
       AND A TOTAL OF          9 INNER ITERATIONS.
    ------------------------------------------------

 NO OUTPUT CONTROL FOR STRESS PERIOD   40   TIME STEP    2
 
 SOLVING FOR HEAD 
                                                   Max.-Head-Change                         Max.-Flux-Residual
  Residual-Control   Outer-Iter.   Inner-Iter.     Column Row Layer    Maximum-Head-Change  Column Row Layer    Maximum-Flux-Residual          L2-NORM 
          0                 1           2             3    7     1       0.1380012633E-01       4   13    1         0.5732540421E+00      0.2615625169E+01
          0                 2           2             5    7     1      -0.2208354004E-02       5    7    1        -0.1202424131E+00      0.3196844063E+00
          0                 3           2             5    7     1      -0.5497134210E-03       5    7    1        -0.3013182810E-01      0.5484488168E-01
          0                 4           2             5    7     1      -0.1369299451E-03       5    7    1        -0.7488161321E-02      0.1343730696E-01
          0                 5           1             4    8     1      -0.3490680029E-04       5    7    1        -0.1866049467E-02      0.3472282304E-02

    ------------------------------------------------
       NWT REQUIRED            5 OUTER ITERATIONS 
       AND A TOTAL OF          9 INNER ITERATIONS.
    ------------------------------------------------

 NO OUTPUT CONTROL FOR STRESS PERIOD   40   TIME STEP    3
 
 SOLVING FOR HEAD 
                                                   Max.-Head-Change                         Max.-Flux-Residual
  Residual-Control   Outer-Iter.   Inner-Iter.     Column Row Layer    Maximum-Head-Change  Column Row Layer    Maximum-Flux-Residual          L2-NORM 
          0                 1           2             4    7     1      -0.1569837798E-01       4    7    1        -0.8492328186E+00      0.2668394693E+01
          0                 2           2             4    7     1      -0.3995847947E-02       4    7    1        -0.2149015347E+00      0.3642774185E+00
          0                 3           2             4    7     1      -0.1017261143E-02       4    7    1        -0.5481603141E-01      0.7168998300E-01
          0                 4           2             4    7     1      -0.2590097188E-03       4    7    1        -0.1394839031E-01      0.1789387090E-01
          0                 5           1             4    7     1      -0.6595502358E-04       4    7    1        -0.3551844819E-02      0.4597464174E-02

    ------------------------------------------------
       NWT REQUIRED            5 OUTER ITERATIONS 
       AND A TOTAL OF          9 INNER ITERATIONS.
    ------------------------------------------------

 NO OUTPUT CONTROL FOR STRESS PERIOD   40   TIME STEP    4
 
 SOLVING FOR HEAD 
                                                   Max.-Head-Change                         Max.-Flux-Residual
  Residual-Control   Outer-Iter.   Inner-Iter.     Column Row Layer    Maximum-Head-Change  Column Row Layer    Maximum-Flux-Residual          L2-NORM 
          0                 1           2             4    7     1      -0.1481614242E-01       4    7    1        -0.8014565982E+00      0.2606083157E+01
          0                 2           2             4    7     1      -0.3772411176E-02       4    7    1        -0.2028292219E+00      0.3492701259E+00
          0                 3           2             4    7     1      -0.9607456278E-03       4    7    1        -0.5175615073E-01      0.6735512719E-01
          0                 4           2             4    7     1      -0.2447401679E-03       4    7    1        -0.1317495297E-01      0.1672860242E-01
          0                 5           1             4    7     1      -0.6236055810E-04       4    7    1        -0.3356660004E-02      0.4288793253E-02

    ------------------------------------------------
       NWT REQUIRED            5 OUTER ITERATIONS 
       AND A TOTAL OF          9 INNER ITERATIONS.
    ------------------------------------------------

 NO OUTPUT CONTROL FOR STRESS PERIOD   40   TIME STEP    5
 
 SOLVING FOR HEAD 
                                                   Max.-Head-Change                         Max.-Flux-Residual
  Residual-Control   Outer-Iter.   Inner-Iter.     Column Row Layer    Maximum-Head-Change  Column Row Layer    Maximum-Flux-Residual          L2-NORM 
          0                 1           2             4    7     1      -0.1399209683E-01       4    7    1        -0.7565094627E+00      0.2648430250E+01
          0                 2           2             4    7     1      -0.3567876726E-02       4    7    1        -0.1915853829E+00      0.3784783443E+00
          0                 3           2             4    7     1      -0.9107954198E-03       4    7    1        -0.4897442268E-01      0.7756785457E-01
          0                 4           2             4    7     1      -0.2327666031E-03       4    7    1        -0.1249909259E-01      0.1931638985E-01
          0                 5           1             4    7     1      -0.5955470912E-04       4    7    1        -0.3195567922E-02      0.4933202158E-02

    ------------------------------------------------
       NWT REQUIRED            5 OUTER ITERATIONS 
       AND A TOTAL OF          9 INNER ITERATIONS.
    ------------------------------------------------

 NO OUTPUT CONTROL FOR STRESS PERIOD   40   TIME STEP    6
 
 SOLVING FOR HEAD 
                                                   Max.-Head-Change                         Max.-Flux-Residual
  Residual-Control   Outer-Iter.   Inner-Iter.     Column Row Layer    Maximum-Head-Change  Column Row Layer    Maximum-Flux-Residual          L2-NORM 
          0                 1           2             4    7     1      -0.1323003050E-01       4    7    1        -0.7148572231E+00      0.2576528231E+01
          0                 2           2             4    7     1      -0.3377131338E-02       4    7    1        -0.1811958072E+00      0.3609311664E+00
          0                 3           2             4    7     1      -0.8630329282E-03       4    7    1        -0.4637061089E-01      0.7280856487E-01
          0                 4           2             4    7     1      -0.2208045537E-03       4    7    1        -0.1184722554E-01      0.1812377837E-01
          0                 5           1             4    7     1      -0.5655891731E-04       4    7    1        -0.3032296328E-02      0.4637617179E-02

    ------------------------------------------------
       NWT REQUIRED            5 OUTER ITERATIONS 
       AND A TOTAL OF          9 INNER ITERATIONS.
    ------------------------------------------------

 NO OUTPUT CONTROL FOR STRESS PERIOD   40   TIME STEP    7
 
 SOLVING FOR HEAD 
                                                   Max.-Head-Change                         Max.-Flux-Residual
  Residual-Control   Outer-Iter.   Inner-Iter.     Column Row Layer    Maximum-Head-Change  Column Row Layer    Maximum-Flux-Residual          L2-NORM 
          0                 1           2             4    7     1      -0.1252111877E-01       4    7    1        -0.6761741594E+00      0.2511957232E+01
          0                 2           2             4    7     1      -0.3199253531E-02       4    7    1        -0.1715245224E+00      0.3451542216E+00
          0                 3           2             4    7     1      -0.8183770705E-03       4    7    1        -0.4394071429E-01      0.6847564315E-01
          0                 4           2             4    7     1      -0.2095898146E-03       4    7    1        -0.1123730210E-01      0.1703456365E-01
          0                 5           1             4    7     1      -0.5374174192E-04       4    7    1        -0.2879060740E-02      0.4367304055E-02

    ------------------------------------------------
       NWT REQUIRED            5 OUTER ITERATIONS 
       AND A TOTAL OF          9 INNER ITERATIONS.
    ------------------------------------------------

 NO OUTPUT CONTROL FOR STRESS PERIOD   40   TIME STEP    8
 
 SOLVING FOR HEAD 
                                                   Max.-Head-Change                         Max.-Flux-Residual
  Residual-Control   Outer-Iter.   Inner-Iter.     Column Row Layer    Maximum-Head-Change  Column Row Layer    Maximum-Flux-Residual          L2-NORM 
          0                 1           2             3    6     1       0.1197783275E-01       4    7    1        -0.6401510116E+00      0.2453713867E+01
          0                 2           2             4    7     1      -0.3032942433E-02       4    7    1        -0.1624979395E+00      0.3309182734E+00
          0                 3           2             4    7     1      -0.7765200641E-03       4    7    1        -0.4166724759E-01      0.6451349475E-01
          0                 4           2             4    7     1      -0.1990492020E-03       4    7    1        -0.1066506566E-01      0.1603473757E-01
          0                 5           1             4    7     1      -0.5108624095E-04       4    7    1        -0.2734819523E-02      0.4118973463E-02

    ------------------------------------------------
       NWT REQUIRED            5 OUTER ITERATIONS 
       AND A TOTAL OF          9 INNER ITERATIONS.
    ------------------------------------------------

 NO OUTPUT CONTROL FOR STRESS PERIOD   40   TIME STEP    9
 
 SOLVING FOR HEAD 
                                                   Max.-Head-Change                         Max.-Flux-Residual
  Residual-Control   Outer-Iter.   Inner-Iter.     Column Row Layer    Maximum-Head-Change  Column Row Layer    Maximum-Flux-Residual          L2-NORM 
          0                 1           2             3    6     1       0.1182462671E-01       4    7    1        -0.6065302866E+00      0.2400940041E+01
          0                 2           2             4    7     1      -0.2877121560E-02       4    7    1        -0.1540549440E+00      0.3180244870E+00
          0                 3           2             4    7     1      -0.7372082221E-03       4    7    1        -0.3953570670E-01      0.6087391535E-01
          0                 4           2             4    7     1      -0.1891223407E-03       4    7    1        -0.1012690754E-01      0.1511279108E-01
          0                 5           1             4    7     1      -0.4858036415E-04       4    7    1        -0.2598912687E-02      0.3890069713E-02

    ------------------------------------------------
       NWT REQUIRED            5 OUTER ITERATIONS 
       AND A TOTAL OF          9 INNER ITERATIONS.
    ------------------------------------------------

 NO OUTPUT CONTROL FOR STRESS PERIOD   40   TIME STEP   10
 
 SOLVING FOR HEAD 
                                                   Max.-Head-Change                         Max.-Flux-Residual
  Residual-Control   Outer-Iter.   Inner-Iter.     Column Row Layer    Maximum-Head-Change  Column Row Layer    Maximum-Flux-Residual          L2-NORM 
          0                 1           2             3    6     1       0.1166961476E-01       4    7    1        -0.5750713709E+00      0.2352905541E+01
          0                 2           2             4    7     1      -0.2730780068E-02       4    7    1        -0.1461383509E+00      0.3063058517E+00
          0                 3           2             4    7     1      -0.7001938066E-03       4    7    1        -0.3753116536E-01      0.5751715503E-01
          0                 4           2             4    7     1      -0.1797596823E-03       4    7    1        -0.9619987479E-02      0.1426022807E-01
          0                 5           1             4    7     1      -0.4621262443E-04       4    7    1        -0.2470674667E-02      0.3678444619E-02

    ------------------------------------------------
       NWT REQUIRED            5 OUTER ITERATIONS 
       AND A TOTAL OF          9 INNER ITERATIONS.
    ------------------------------------------------

 NO OUTPUT CONTROL FOR STRESS PERIOD   40   TIME STEP   11
 
 SOLVING FOR HEAD 
                                                   Max.-Head-Change                         Max.-Flux-Residual
  Residual-Control   Outer-Iter.   Inner-Iter.     Column Row Layer    Maximum-Head-Change  Column Row Layer    Maximum-Flux-Residual          L2-NORM 
          0                 1           2             3    6     1       0.1151379117E-01       4    7    1        -0.5455773850E+00      0.2309001054E+01
          0                 2           2             4    7     1      -0.2593090395E-02       4    7    1        -0.1387012802E+00      0.2956207999E+00
          0                 3           2             4    7     1      -0.6653097713E-03       4    7    1        -0.3564686241E-01      0.5440855751E-01
          0                 4           2             4    7     1      -0.1709112378E-03       4    7    1        -0.9143144861E-02      0.1346208309E-01
          0                 5           1             4    7     1      -0.4396281419E-04       4    7    1        -0.2349812554E-02      0.3475841227E-02

    ------------------------------------------------
       NWT REQUIRED            5 OUTER ITERATIONS 
       AND A TOTAL OF          9 INNER ITERATIONS.
    ------------------------------------------------

 NO OUTPUT CONTROL FOR STRESS PERIOD   40   TIME STEP   12
 
 SOLVING FOR HEAD 
                                                   Max.-Head-Change                         Max.-Flux-Residual
  Residual-Control   Outer-Iter.   Inner-Iter.     Column Row Layer    Maximum-Head-Change  Column Row Layer    Maximum-Flux-Residual          L2-NORM 
          0                 1           2             3    6     1       0.1135754711E-01       4    7    1        -0.5178608514E+00      0.2268707580E+01
          0                 2           2             4    7     1      -0.2463260892E-02       4    7    1        -0.1316990479E+00      0.2858475812E+00
          0                 3           2             4    7     1      -0.6323391860E-03       4    7    1        -0.3386767920E-01      0.5151965300E-01
          0                 4           1             4    7     1      -0.1625303318E-03       4    7    1        -0.8691333451E-02      0.1271829418E-01
          0                 5           1             4    7     1      -0.4183054251E-04       4    7    1        -0.2234930295E-02      0.3288703996E-02

    ------------------------------------------------
       NWT REQUIRED            5 OUTER ITERATIONS 
       AND A TOTAL OF          8 INNER ITERATIONS.
    ------------------------------------------------

 NO OUTPUT CONTROL FOR STRESS PERIOD   40   TIME STEP   13
 
 SOLVING FOR HEAD 
                                                   Max.-Head-Change                         Max.-Flux-Residual
  Residual-Control   Outer-Iter.   Inner-Iter.     Column Row Layer    Maximum-Head-Change  Column Row Layer    Maximum-Flux-Residual          L2-NORM 
          0                 1           2             3    6     1       0.1120168875E-01       5    4    1         0.4938629308E+00      0.2231577053E+01
          0                 2           2             4    7     1      -0.2340585788E-02       4    7    1        -0.1250918516E+00      0.2768811145E+00
          0                 3           2             4    7     1      -0.6011240680E-03       4    7    1        -0.3218562476E-01      0.4882533925E-01
          0                 4           1             4    7     1      -0.1545793422E-03       4    7    1        -0.8263337925E-02      0.1202030599E-01
          0                 5           1             4    7     1      -0.3980328083E-04       4    7    1        -0.2125877237E-02      0.3112431041E-02

    ------------------------------------------------
       NWT REQUIRED            5 OUTER ITERATIONS 
       AND A TOTAL OF          8 INNER ITERATIONS.
    ------------------------------------------------

 NO OUTPUT CONTROL FOR STRESS PERIOD   40   TIME STEP   14
 
 SOLVING FOR HEAD 
                                                   Max.-Head-Change                         Max.-Flux-Residual
  Residual-Control   Outer-Iter.   Inner-Iter.     Column Row Layer    Maximum-Head-Change  Column Row Layer    Maximum-Flux-Residual          L2-NORM 
          0                 1           2             3    6     1       0.1098982024E-01       5    4    1         0.4894134593E+00      0.2224276357E+01
          0                 2           2             4    7     1      -0.2274334480E-02       4    7    1        -0.1204395389E+00      0.2835090616E+00
          0                 3           2             4    7     1      -0.5911409606E-03       4    7    1        -0.3138571138E-01      0.5240236509E-01
          0                 4           2             4    7     1      -0.1536768537E-03       4    7    1        -0.8152637144E-02      0.1309255912E-01
          0                 5           1             4    7     1      -0.3995803229E-04       4    7    1        -0.2119712404E-02      0.3407728798E-02

    ------------------------------------------------
       NWT REQUIRED            5 OUTER ITERATIONS 
       AND A TOTAL OF          9 INNER ITERATIONS.
    ------------------------------------------------

 NO OUTPUT CONTROL FOR STRESS PERIOD   40   TIME STEP   15
 
 SOLVING FOR HEAD 
                                                   Max.-Head-Change                         Max.-Flux-Residual
  Residual-Control   Outer-Iter.   Inner-Iter.     Column Row Layer    Maximum-Head-Change  Column Row Layer    Maximum-Flux-Residual          L2-NORM 
          0                 1           2             4    6     1      -0.1573028501E-01       4    6    1        -0.8553687663E+00      0.2328547046E+01
          0                 2           2             4    6     1      -0.4007871873E-02       4    6    1        -0.2148981873E+00      0.3409294751E+00
          0                 3           2             4    6     1      -0.1021888626E-02       4    6    1        -0.5503045302E-01      0.7195995729E-01
          0                 4           2             4    6     1      -0.2607343029E-03       4    6    1        -0.1401656134E-01      0.1821767000E-01
          0                 5           1             4    6     1      -0.6657160470E-04       4    6    1        -0.3577544152E-02      0.4713567332E-02

    ------------------------------------------------
       NWT REQUIRED            5 OUTER ITERATIONS 
       AND A TOTAL OF          9 INNER ITERATIONS.
    ------------------------------------------------

 NO OUTPUT CONTROL FOR STRESS PERIOD   40   TIME STEP   16
 
 SOLVING FOR HEAD 
                                                   Max.-Head-Change                         Max.-Flux-Residual
  Residual-Control   Outer-Iter.   Inner-Iter.     Column Row Layer    Maximum-Head-Change  Column Row Layer    Maximum-Flux-Residual          L2-NORM 
          0                 1           2             4    6     1      -0.1477956886E-01       4    6    1        -0.8034054067E+00      0.2283257819E+01
          0                 2           2             4    6     1      -0.3767983720E-02       4    6    1        -0.2019365512E+00      0.3289930919E+00
          0                 3           2             4    6     1      -0.9613051843E-03       4    6    1        -0.5174627247E-01      0.6859040776E-01
          0                 4           2             4    6     1      -0.2454205356E-03       4    6    1        -0.1318778058E-01      0.1734586086E-01
          0                 5           1             4    6     1      -0.6269736751E-04       4    6    1        -0.3367975676E-02      0.4489818127E-02

    ------------------------------------------------
       NWT REQUIRED            5 OUTER ITERATIONS 
       AND A TOTAL OF          9 INNER ITERATIONS.
    ------------------------------------------------

 NO OUTPUT CONTROL FOR STRESS PERIOD   40   TIME STEP   17
 
 SOLVING FOR HEAD 
                                                   Max.-Head-Change                         Max.-Flux-Residual
  Residual-Control   Outer-Iter.   Inner-Iter.     Column Row Layer    Maximum-Head-Change  Column Row Layer    Maximum-Flux-Residual          L2-NORM 
          0                 1           2             4    6     1      -0.1389353656E-01       4    6    1        -0.7550131225E+00      0.2241115880E+01
          0                 2           2             4    6     1      -0.3544217307E-02       4    6    1        -0.1898532340E+00      0.3178356293E+00
          0                 3           2             4    6     1      -0.9047436993E-03       4    6    1        -0.4868206924E-01      0.6540862780E-01
          0                 4           2             4    6     1      -0.2311110942E-03       4    6    1        -0.1241382729E-01      0.1652037550E-01
          0                 5           1             4    6     1      -0.5907415789E-04       4    6    1        -0.3172103908E-02      0.4277664076E-02

    ------------------------------------------------
       NWT REQUIRED            5 OUTER ITERATIONS 
       AND A TOTAL OF          9 INNER ITERATIONS.
    ------------------------------------------------

 NO OUTPUT CONTROL FOR STRESS PERIOD   40   TIME STEP   18
 
 SOLVING FOR HEAD 
                                                   Max.-Head-Change                         Max.-Flux-Residual
  Residual-Control   Outer-Iter.   Inner-Iter.     Column Row Layer    Maximum-Head-Change  Column Row Layer    Maximum-Flux-Residual          L2-NORM 
          0                 1           2             4    6     1      -0.1306674785E-01       4    6    1        -0.7098898531E+00      0.2201789479E+01
          0                 2           2             4    6     1      -0.3335228567E-02       4    6    1        -0.1785745344E+00      0.3073965022E+00
          0                 3           2             4    6     1      -0.8518717932E-03       4    6    1        -0.4581955095E-01      0.6239881452E-01
          0                 4           2             4    6     1      -0.2177237049E-03       4    6    1        -0.1169018187E-01      0.1573734523E-01
          0                 5           1             4    6     1      -0.5568159055E-04       4    6    1        -0.2988809624E-02      0.4076155973E-02

    ------------------------------------------------
       NWT REQUIRED            5 OUTER ITERATIONS 
       AND A TOTAL OF          9 INNER ITERATIONS.
    ------------------------------------------------

 NO OUTPUT CONTROL FOR STRESS PERIOD   40   TIME STEP   19
 
 SOLVING FOR HEAD 
                                                   Max.-Head-Change                         Max.-Flux-Residual
  Residual-Control   Outer-Iter.   Inner-Iter.     Column Row Layer    Maximum-Head-Change  Column Row Layer    Maximum-Flux-Residual          L2-NORM 
          0                 1           2             4    6     1      -0.1229454187E-01       4    6    1        -0.6677761704E+00      0.2165028117E+01
          0                 2           2             4    6     1      -0.3139869272E-02       4    6    1        -0.1680373739E+00      0.2976185662E+00
          0                 3           2             4    6     1      -0.8024063606E-03       4    6    1        -0.4314310253E-01      0.5954872365E-01
          0                 4           2             4    6     1      -0.2051885073E-03       4    6    1        -0.1101299808E-01      0.1499385600E-01
          0                 5           1             4    6     1      -0.5250241169E-04       4    6    1        -0.2817143333E-02      0.3884591999E-02

    ------------------------------------------------
       NWT REQUIRED            5 OUTER ITERATIONS 
       AND A TOTAL OF          9 INNER ITERATIONS.
    ------------------------------------------------

 NO OUTPUT CONTROL FOR STRESS PERIOD   40   TIME STEP   20
 
 SOLVING FOR HEAD 
                                                   Max.-Head-Change                         Max.-Flux-Residual
  Residual-Control   Outer-Iter.   Inner-Iter.     Column Row Layer    Maximum-Head-Change  Column Row Layer    Maximum-Flux-Residual          L2-NORM 
          0                 1           2             4    6     1      -0.1157269424E-01       4    6    1        -0.6284374233E+00      0.2130587612E+01
          0                 2           2             4    6     1      -0.2957094543E-02       4    6    1        -0.1581845331E+00      0.2884497906E+00
          0                 3           2             4    6     1      -0.7560887023E-03       4    6    1        -0.4063849677E-01      0.5684615045E-01
          0                 4           2             4    6     1      -0.1934413855E-03       4    6    1        -0.1037875700E-01      0.1428687199E-01
          0                 5           1             4    6     1      -0.4952071526E-04       4    6    1        -0.2656232526E-02      0.3702227520E-02

    ------------------------------------------------
       NWT REQUIRED            5 OUTER ITERATIONS 
       AND A TOTAL OF          9 INNER ITERATIONS.
    ------------------------------------------------

 NO OUTPUT CONTROL FOR STRESS PERIOD   40   TIME STEP   21
 
 SOLVING FOR HEAD 
                                                   Max.-Head-Change                         Max.-Flux-Residual
  Residual-Control   Outer-Iter.   Inner-Iter.     Column Row Layer    Maximum-Head-Change  Column Row Layer    Maximum-Flux-Residual          L2-NORM 
          0                 1           2             4    6     1      -0.1089696277E-01       4    6    1        -0.5916385764E+00      0.2098257041E+01
          0                 2           2             4    6     1      -0.2785853557E-02       4    6    1        -0.1489584914E+00      0.2798444694E+00
          0                 3           2             4    6     1      -0.7126582993E-03       4    6    1        -0.3829142201E-01      0.5427997074E-01
          0                 4           2             4    6     1      -0.1824176962E-03       4    6    1        -0.9783913601E-02      0.1361366403E-01
          0                 5           1             4    6     1      -0.4672044714E-04       4    6    1        -0.2505197230E-02      0.3528390138E-02

    ------------------------------------------------
       NWT REQUIRED            5 OUTER ITERATIONS 
       AND A TOTAL OF          9 INNER ITERATIONS.
    ------------------------------------------------

 NO OUTPUT CONTROL FOR STRESS PERIOD   40   TIME STEP   22
 
 SOLVING FOR HEAD 
                                                   Max.-Head-Change                         Max.-Flux-Residual
  Residual-Control   Outer-Iter.   Inner-Iter.     Column Row Layer    Maximum-Head-Change  Column Row Layer    Maximum-Flux-Residual          L2-NORM 
          0                 1           2             4    6     1      -0.1026403348E-01       4    6    1        -0.5571951093E+00      0.2067851431E+01
          0                 2           2             4    6     1      -0.2625328923E-02       4    6    1        -0.1403144053E+00      0.2717603604E+00
          0                 3           2             4    6     1      -0.6719133652E-03       4    6    1        -0.3609075700E-01      0.5184186591E-01
          0                 4           2             4    6     1      -0.1720675810E-03       4    6    1        -0.9225725487E-02      0.1297222210E-01
          0                 5           1             4    6     1      -0.4408927659E-04       4    6    1        -0.2363359541E-02      0.3362590813E-02

    ------------------------------------------------
       NWT REQUIRED            5 OUTER ITERATIONS 
       AND A TOTAL OF          9 INNER ITERATIONS.
    ------------------------------------------------

 NO OUTPUT CONTROL FOR STRESS PERIOD   40   TIME STEP   23
 
 SOLVING FOR HEAD 
                                                   Max.-Head-Change                         Max.-Flux-Residual
  Residual-Control   Outer-Iter.   Inner-Iter.     Column Row Layer    Maximum-Head-Change  Column Row Layer    Maximum-Flux-Residual          L2-NORM 
          0                 1           2             3    5     1       0.9699458409E-02       4    6    1        -0.5249106800E+00      0.2039189782E+01
          0                 2           2             4    6     1      -0.2474637675E-02       4    6    1        -0.1322040607E+00      0.2641601777E+00
          0                 3           2             4    6     1      -0.6336342222E-03       4    6    1        -0.3402446436E-01      0.4952198206E-01
          0                 4           2             4    6     1      -0.1623363317E-03       4    6    1        -0.8701200258E-02      0.1236003066E-01
          0                 5           1             4    6     1      -0.4161356630E-04       4    6    1        -0.2229973931E-02      0.3204206202E-02

    ------------------------------------------------
       NWT REQUIRED            5 OUTER ITERATIONS 
       AND A TOTAL OF          9 INNER ITERATIONS.
    ------------------------------------------------

 NO OUTPUT CONTROL FOR STRESS PERIOD   40   TIME STEP   24
 
 SOLVING FOR HEAD 
                                                   Max.-Head-Change                         Max.-Flux-Residual
  Residual-Control   Outer-Iter.   Inner-Iter.     Column Row Layer    Maximum-Head-Change  Column Row Layer    Maximum-Flux-Residual          L2-NORM 
          0                 1           2             3    5     1       0.9596836165E-02       4    6    1        -0.4946353544E+00      0.2012146530E+01
          0                 2           2             4    6     1      -0.2333111218E-02       4    6    1        -0.1245908958E+00      0.2569731499E+00
          0                 3           2             4    6     1      -0.5976544217E-03       4    6    1        -0.3208343511E-01      0.4729239534E-01
          0                 4           2             4    6     1      -0.1531822363E-03       4    6    1        -0.8208069412E-02      0.1176802593E-01
          0                 5           1             4    6     1      -0.3928278249E-04       4    6    1        -0.2104470723E-02      0.3050502366E-02

    ------------------------------------------------
       NWT REQUIRED            5 OUTER ITERATIONS 
       AND A TOTAL OF          9 INNER ITERATIONS.
    ------------------------------------------------

 NO OUTPUT CONTROL FOR STRESS PERIOD   40   TIME STEP   25
 
 SOLVING FOR HEAD 
                                                   Max.-Head-Change                         Max.-Flux-Residual
  Residual-Control   Outer-Iter.   Inner-Iter.     Column Row Layer    Maximum-Head-Change  Column Row Layer    Maximum-Flux-Residual          L2-NORM 
          0                 1           2             3    5     1       0.9493893027E-02       4    6    1        -0.4662108539E+00      0.1986543640E+01
          0                 2           2             4    6     1      -0.2200038654E-02       4    6    1        -0.1174360761E+00      0.2502531920E+00
          0                 3           2             4    6     1      -0.5637986864E-03       4    6    1        -0.3025798055E-01      0.4519018311E-01
          0                 4           2             4    6     1      -0.1445625442E-03       4    6    1        -0.7743953619E-02      0.1120973626E-01
          0                 5           1             4    6     1      -0.3708664383E-04       4    6    1        -0.1986271402E-02      0.2905813055E-02

    ------------------------------------------------
       NWT REQUIRED            5 OUTER ITERATIONS 
       AND A TOTAL OF          9 INNER ITERATIONS.
    ------------------------------------------------

 NO OUTPUT CONTROL FOR STRESS PERIOD   40   TIME STEP   26
 
 SOLVING FOR HEAD 
                                                   Max.-Head-Change                         Max.-Flux-Residual
  Residual-Control   Outer-Iter.   Inner-Iter.     Column Row Layer    Maximum-Head-Change  Column Row Layer    Maximum-Flux-Residual          L2-NORM 
          0                 1           2             3    5     1       0.9390835163E-02       5    4    1         0.4408593070E+00      0.1962290275E+01
          0                 2           2             4    6     1      -0.2074772988E-02       4    6    1        -0.1107042387E+00      0.2439030788E+00
          0                 3           2             4    6     1      -0.5319053206E-03       4    6    1        -0.2853928312E-01      0.4317756875E-01
          0                 4           2             4    6     1      -0.1364364818E-03       4    6    1        -0.7306646150E-02      0.1067346879E-01
          0                 5           1             4    6     1      -0.3501476797E-04       4    6    1        -0.1874818044E-02      0.2766746647E-02

    ------------------------------------------------
       NWT REQUIRED            5 OUTER ITERATIONS 
       AND A TOTAL OF          9 INNER ITERATIONS.
    ------------------------------------------------

 NO OUTPUT CONTROL FOR STRESS PERIOD   40   TIME STEP   27
 
 SOLVING FOR HEAD 
                                                   Max.-Head-Change                         Max.-Flux-Residual
  Residual-Control   Outer-Iter.   Inner-Iter.     Column Row Layer    Maximum-Head-Change  Column Row Layer    Maximum-Flux-Residual          L2-NORM 
          0                 1           2             3    5     1       0.9288088188E-02       5    4    1         0.4371564181E+00      0.1939288627E+01
          0                 2           2             4    6     1      -0.1956757070E-02       4    6    1        -0.1043649655E+00      0.2379242177E+00
          0                 3           2             4    6     1      -0.5018361107E-03       4    6    1        -0.2691974778E-01      0.4125822838E-01
          0                 4           2             4    6     1      -0.1287698047E-03       4    6    1        -0.6894266306E-02      0.1016018383E-01
          0                 5           1             4    6     1      -0.3305868001E-04       4    6    1        -0.1769644733E-02      0.2633538478E-02

    ------------------------------------------------
       NWT REQUIRED            5 OUTER ITERATIONS 
       AND A TOTAL OF          9 INNER ITERATIONS.
    ------------------------------------------------

 NO OUTPUT CONTROL FOR STRESS PERIOD   40   TIME STEP   28
 
 SOLVING FOR HEAD 
                                                   Max.-Head-Change                         Max.-Flux-Residual
  Residual-Control   Outer-Iter.   Inner-Iter.     Column Row Layer    Maximum-Head-Change  Column Row Layer    Maximum-Flux-Residual          L2-NORM 
          0                 1           2             3    5     1       0.9185569756E-02       5    4    1         0.4335032758E+00      0.1917448260E+01
          0                 2           2             4    6     1      -0.1845480043E-02       4    6    1        -0.9839041374E-01      0.2322938665E+00
          0                 3           2             4    6     1      -0.4734636637E-03       4    6    1        -0.2539240504E-01      0.3942686739E-01
          0                 4           2             4    6     1      -0.1215307142E-03       4    6    1        -0.6505077673E-02      0.9668540454E-02
          0                 5           1             4    6     1      -0.3121043469E-04       4    6    1        -0.1670317862E-02      0.2505855234E-02

    ------------------------------------------------
       NWT REQUIRED            5 OUTER ITERATIONS 
       AND A TOTAL OF          9 INNER ITERATIONS.
    ------------------------------------------------

 NO OUTPUT CONTROL FOR STRESS PERIOD   40   TIME STEP   29
 
 SOLVING FOR HEAD 
                                                   Max.-Head-Change                         Max.-Flux-Residual
  Residual-Control   Outer-Iter.   Inner-Iter.     Column Row Layer    Maximum-Head-Change  Column Row Layer    Maximum-Flux-Residual          L2-NORM 
          0                 1           2             3    5     1       0.9083670492E-02       5    4    1         0.4299060026E+00      0.1896681062E+01
          0                 2           2             4    6     1      -0.1740443435E-02       4    6    1        -0.9275338841E-01      0.2269900689E+00
          0                 3           2             4    6     1      -0.4466639320E-03       4    6    1        -0.2395045746E-01      0.3767871878E-01
          0                 4           2             4    6     1      -0.1146883119E-03       4    6    1        -0.6137390471E-02      0.9197282541E-02
          0                 5           1             4    6     1      -0.2946232869E-04       4    6    1        -0.1576416339E-02      0.2383379483E-02

    ------------------------------------------------
       NWT REQUIRED            5 OUTER ITERATIONS 
       AND A TOTAL OF          9 INNER ITERATIONS.
    ------------------------------------------------

 NO OUTPUT CONTROL FOR STRESS PERIOD   40   TIME STEP   30



 STREAM LISTING     PERIOD     40   STEP       30

 LAYER ROW COL. STREAM  RCH.  FLOW INTO     FLOW TO   FLOW OUT OF   OVRLND.     DIRECT     STREAM       STREAM     STREAM     STREAM   STREAMBED  STREAMBED
                SEG.NO.  NO.  STRM. RCH.    AQUIFER    STRM. RCH.    RUNOFF     PRECIP       ET          HEAD       DEPTH      WIDTH   CONDCTNC.   GRADIENT

   1    1    1     1     1    3.6749E+01  2.9261E-01   3.6456E+01  0.000E+00  0.000E+00  0.000E+00  1.09435E+03  1.306E+00  1.510E+01  6.795E-02  1.435E+00
   1    2    2     1     2    3.6456E+01  4.5309E-01   3.6003E+01  0.000E+00  0.000E+00  0.000E+00  1.08936E+03  1.303E+00  1.504E+01  1.053E-01  1.434E+00
   1    3    3     1     3    3.6003E+01  3.8635E-01   3.5617E+01  0.000E+00  0.000E+00  0.000E+00  1.08372E+03  1.300E+00  1.497E+01  8.985E-02  1.433E+00
   1    3    4     1     4    3.5617E+01  3.5571E-01   3.5261E+01  0.000E+00  0.000E+00  0.000E+00  1.07870E+03  1.297E+00  1.492E+01  8.278E-02  1.432E+00
   1    4    5     2     1    3.3261E+01  3.4544E-01   3.2916E+01  0.000E+00  0.000E+00  0.000E+00  1.07336E+03  1.429E+00  1.200E+01  7.800E-02  1.476E+00
   1    5    6     2     2    3.2916E+01  2.6525E-01   3.2650E+01  0.000E+00  0.000E+00  0.000E+00  1.06793E+03  1.421E+00  1.200E+01  6.000E-02  1.474E+00
   1    6    6     2     3    3.2650E+01  2.6483E-01   3.2386E+01  0.000E+00  0.000E+00  0.000E+00  1.06321E+03  1.414E+00  1.200E+01  6.000E-02  1.471E+00
   1    7    6     2     4    3.2386E+01  2.6442E-01   3.2121E+01  0.000E+00  0.000E+00  0.000E+00  1.05848E+03  1.407E+00  1.200E+01  6.000E-02  1.469E+00
   1    8    6     2     5    3.2121E+01  2.6400E-01   3.1857E+01  0.000E+00  0.000E+00  0.000E+00  1.05376E+03  1.400E+00  1.200E+01  6.000E-02  1.467E+00
   1    3    5     3     1    2.0000E+00  2.8252E-01   1.7175E+00  0.000E+00  0.000E+00  0.000E+00  1.07555E+03  1.909E+00  9.636E+00  7.227E-02  1.955E+00
   1    3    6     3     2    1.7175E+00  2.4905E-01   1.4684E+00  0.000E+00  0.000E+00  0.000E+00  1.07264E+03  1.727E+00  8.909E+00  6.682E-02  1.864E+00
   1    3    7     3     3    1.4684E+00  1.9718E-01   1.2712E+00  0.000E+00  0.000E+00  0.000E+00  1.06987E+03  1.555E+00  8.218E+00  5.547E-02  1.777E+00
   1    4    8     3     4    1.2712E+00  2.2567E-01   1.0456E+00  0.000E+00  0.000E+00  0.000E+00  1.06682E+03  1.364E+00  7.455E+00  6.709E-02  1.682E+00
   1    5    8     3     5    1.0456E+00  1.5790E-01   8.8768E-01  0.000E+00  0.000E+00  0.000E+00  1.06362E+03  1.164E+00  6.655E+00  4.991E-02  1.582E+00
   1    6    8     3     6    8.8768E-01  5.5980E-02   8.3170E-01  0.000E+00  0.000E+00  0.000E+00  1.06158E+03  1.036E+00  6.145E+00  1.844E-02  1.518E+00
   1    5   10     4     1    1.0000E+01  9.0919E-02   9.9091E+00  0.000E+00  0.000E+00  0.000E+00  1.07836E+03  6.368E-01  1.000E+01  2.500E-02  1.212E+00
   1    5    9     4     2    9.9091E+00  1.8158E-01   9.7275E+00  0.000E+00  0.000E+00  0.000E+00  1.07154E+03  6.315E-01  1.000E+01  5.000E-02  1.211E+00
   1    6    8     4     3    9.7275E+00  1.2689E-01   9.6006E+00  0.000E+00  0.000E+00  0.000E+00  1.06381E+03  6.256E-01  1.000E+01  3.500E-02  1.209E+00
   1    6    8     5     1    1.0432E+01  2.2686E-01   1.0205E+01  0.000E+00  0.000E+00  0.000E+00  1.05868E+03  6.790E-01  1.542E+01  6.166E-02  1.226E+00
   1    7    7     5     2    1.0205E+01  2.7894E-01   9.9265E+00  0.000E+00  0.000E+00  0.000E+00  1.05417E+03  6.732E-01  1.519E+01  7.594E-02  1.224E+00
   1    8    7     5     3    9.9265E+00  1.9221E-01   9.7343E+00  0.000E+00  0.000E+00  0.000E+00  1.04992E+03  6.676E-01  1.497E+01  5.241E-02  1.223E+00
   1    8    6     5     4    9.7343E+00  1.3577E-01   9.5985E+00  0.000E+00  0.000E+00  0.000E+00  1.04691E+03  6.637E-01  1.482E+01  3.706E-02  1.221E+00
   1    9    6     6     1    4.1456E+01  2.7904E-01   4.1177E+01  0.000E+00  0.000E+00  0.000E+00  1.04438E+03  1.651E+00  1.200E+01  6.000E-02  1.550E+00
   1   10    7     6     2    4.1177E+01  2.7863E-01   4.0898E+01  0.000E+00  0.000E+00  0.000E+00  1.03983E+03  1.644E+00  1.200E+01  6.000E-02  1.548E+00
   1   11    7     6     3    4.0898E+01  2.7823E-01   4.0620E+01  0.000E+00  0.000E+00  0.000E+00  1.03527E+03  1.637E+00  1.200E+01  6.000E-02  1.546E+00
   1   12    7     6     4    4.0620E+01  2.7783E-01   4.0342E+01  0.000E+00  0.000E+00  0.000E+00  1.03072E+03  1.630E+00  1.200E+01  6.000E-02  1.543E+00
   1   13    7     6     5    4.0342E+01  3.0850E-02   4.0311E+01  0.000E+00  0.000E+00  0.000E+00  1.02754E+03  1.627E+00  1.200E+01  2.400E-02  4.285E-01
   1   14    9     7     1    1.5000E+02  1.4234E+00   1.4858E+02  0.000E+00  0.000E+00  0.000E+00  1.03987E+03  2.287E+00  5.529E+01  5.593E-01  8.483E-01
   1   13    8     7     2    1.4858E+02  2.1072E+00   1.4647E+02  0.000E+00  0.000E+00  0.000E+00  1.03478E+03  2.278E+00  5.525E+01  6.147E-01  1.143E+00
   1   13    7     7     3    1.4647E+02  1.9184E+00   1.4455E+02  0.000E+00  0.000E+00  0.000E+00  1.02969E+03  2.267E+00  5.520E+01  5.583E-01  1.145E+00
   1   13    6     8     1    1.8486E+02  1.4186E+00   1.8344E+02  0.000E+00  0.000E+00  0.000E+00  1.02492E+03  3.042E+00  4.411E+01  4.495E-01  1.052E+00
   1   13    5     8     2    1.8344E+02  5.9766E-01   1.8285E+02  0.000E+00  0.000E+00  0.000E+00  1.01866E+03  3.036E+00  4.402E+01  4.486E-01  4.441E-01
   1   13    4     8     3    1.8285E+02 -1.1128E+00   1.8396E+02  0.000E+00  0.000E+00  0.000E+00  1.01241E+03  3.037E+00  4.404E+01  4.488E+00 -8.265E-02
   1   13    3     8     4    1.8396E+02 -2.9641E+00   1.8692E+02  0.000E+00  0.000E+00  0.000E+00  1.00618E+03  3.050E+00  4.423E+01  4.507E+00 -2.192E-01
   1   13    2     8     5    1.8692E+02 -2.3383E+00   1.8926E+02  0.000E+00  0.000E+00  0.000E+00  9.99941E+02  3.066E+00  4.446E+01  4.531E+00 -1.720E-01
   1   13    1     8     6    1.8926E+02 -1.8549E+00   1.9112E+02  0.000E+00  0.000E+00  0.000E+00  9.94954E+02  3.079E+00  4.465E+01  2.730E+00 -2.265E-01
   1    8    6     9     1    0.0000E+00  0.0000E+00   0.0000E+00  0.000E+00  0.000E+00  0.000E+00  1.07875E+03  0.000E+00  4.000E+00  0.000E+00  1.000E+00
   1    8    5     9     2    0.0000E+00  0.0000E+00   0.0000E+00  0.000E+00  0.000E+00  0.000E+00  1.07825E+03  0.000E+00  4.000E+00  0.000E+00  1.000E+00





UNSATURATED ZONE PACKAGE VOLUMETRIC BUDGET FOR  TIME STEP    30 STRESS PERIOD   40
  ------------------------------------------------------------------------------



     CUMULATIVE VOLUMES      L**3       RATES FOR THIS TIME STEP      L**3/T
     ------------------                 ------------------------

           IN:                                      IN:
           ---                                      ---
        INFILTRATION =  9918003410.2637          INFILTRATION =           0.8475

          OUT:                                     OUT:
          ----                                     ----
              UZF ET =  1292242059.4371                UZF ET =           0.7500
        UZF RECHARGE =  8198922660.1130          UZF RECHARGE =           3.6408

            IN - OUT =   426838690.7136              IN - OUT =          -3.5433

          STORAGE:                                 STORAGE:
          --------                                 --------
      STORAGE CHANGE =   427962563.8313        STORAGE CHANGE =          -3.5433

 PERCENT DISCREPANCY IS DIFFERENCE BETWEEN IN-OUT MINUS CHANGE IN STORAGE
 DIVIDED BY THE AVERAGE OF IN AND OUT TIMES 100

 PERCENT DISCREPANCY =          -0.00     PERCENT DISCREPANCY =           0.00






1
  VOLUMETRIC BUDGET FOR AGRICULTURAL FIELDS AT  END OF TIME STEP   30, STRESS PERIOD  40
  ------------------------------------------------------------------------------

     CUMULATIVE VOLUMES      L**3       RATES FOR THIS TIME STEP      L**3/T
     ------------------                 ------------------------

           IN:                                      IN:
           ---                                      ---
               AG WELLS  =  9374535680.0000                 AG WELLS  =           0.0000
      DIVERSION SEGMENTS =   456493472.0000        DIVERSION SEGMENTS =           0.0000
           GW IRRIGATION =           0.0000             GW IRRIGATION =           0.0000
           SW IRRIGATION =           0.0000             SW IRRIGATION =           0.0000
        SYSTEM LOSSES GW =           0.0000          SYSTEM LOSSES GW =           0.0000
        SYSTEM LOSSES SW =           0.0000          SYSTEM LOSSES SW =           0.0000

                TOTAL IN =  9831028736.0000                  TOTAL IN =           0.0000

          OUT:                                     OUT:
          ----                                     ----
               AG WELLS  =           0.0000                 AG WELLS  =           0.0000
      DIVERSION SEGMENTS =           0.0000        DIVERSION SEGMENTS =           0.0000
           GW IRRIGATION =  9374535680.0000             GW IRRIGATION =           0.0000
           SW IRRIGATION =   456501856.0000             SW IRRIGATION =           0.0000
        SYSTEM LOSSES GW =           0.0000          SYSTEM LOSSES GW =           0.0000
        SYSTEM LOSSES SW =           0.0000          SYSTEM LOSSES SW =           0.0000

               TOTAL OUT =  9831037952.0000                 TOTAL OUT =           0.0000

                IN - OUT =       -9216.0000                  IN - OUT =           0.0000

     PERCENT DISCREPANCY =          -0.00         PERCENT DISCREPANCY =           0.00



1
  VOLUMETRIC BUDGET FOR ENTIRE MODEL AT END OF TIME STEP   30, STRESS PERIOD  40
  ------------------------------------------------------------------------------

     CUMULATIVE VOLUMES      L**3       RATES FOR THIS TIME STEP      L**3/T
     ------------------                 ------------------------

           IN:                                      IN:
           ---                                      ---
             STORAGE     =  8196980736.0000               STORAGE     =           2.9313
       CONSTANT HEAD     =           0.0000         CONSTANT HEAD     =           0.0000
     HEAD DEP BOUNDS     =    29706992.0000       HEAD DEP BOUNDS     =           0.2917
      STREAM LEAKAGE     =  1264322688.0000        STREAM LEAKAGE     =          13.9030
        UZF RECHARGE     =  8198922752.0000          UZF RECHARGE     =           3.6408
               GW ET     =           0.0000                 GW ET     =           0.0000
     SURFACE LEAKAGE     =           0.0000       SURFACE LEAKAGE     =           0.0000
           AG WELLS      =           0.0000             AG WELLS      =           0.0000

                TOTAL IN = 17689933824.0000                  TOTAL IN =          20.7668

          OUT:                                     OUT:
          ----                                     ----
             STORAGE     =  7326451200.0000               STORAGE     =          12.2079
       CONSTANT HEAD     =           0.0000         CONSTANT HEAD     =           0.0000
     HEAD DEP BOUNDS     =    29537344.0000       HEAD DEP BOUNDS     =           0.2901
      STREAM LEAKAGE     =   959269120.0000        STREAM LEAKAGE     =           8.2701
        UZF RECHARGE     =           0.0000          UZF RECHARGE     =           0.0000
               GW ET     =           0.0000                 GW ET     =           0.0000
     SURFACE LEAKAGE     =           0.0000       SURFACE LEAKAGE     =           0.0000
           AG WELLS      =  9374535680.0000             AG WELLS      =           0.0000

               TOTAL OUT = 17689792512.0000                 TOTAL OUT =          20.7681

                IN - OUT =      141312.0000                  IN - OUT =      -1.2913E-03

     PERCENT DISCREPANCY =           0.00         PERCENT DISCREPANCY =          -0.01






         TIME SUMMARY AT END OF TIME STEP   30 IN STRESS PERIOD   40
                    SECONDS     MINUTES      HOURS       DAYS        YEARS
                    -----------------------------------------------------------
   TIME STEP LENGTH  87667.      1461.1      24.352      1.0147     2.77799E-03
 STRESS PERIOD TIME 2.63000E+06  43833.      730.56      30.440     8.33397E-02
         TOTAL TIME 1.02656E+08 1.71093E+06  28515.      1188.1      3.2530    
1
1
                            STRESS PERIOD NO.   41, LENGTH =   2630000.    
                            -----------------------------------------------

                              NUMBER OF TIME STEPS =    30

                               MULTIPLIER FOR DELT =     1.000

                            INITIAL TIME STEP SIZE =   87666.66    

 REUSING NON-PARAMETER GHB CELLS FROM LAST STRESS PERIOD

      2 GHB CELLS

 REUSING STREAM SEGMENT DATA FROM LAST STRESS PERIOD



            AREAL INFILTRATION RATE
 READING ON UNIT   19 WITH FORMAT: (FREE)              

            1           2           3           4           5           6           7           8           9          10
 ........................................................................................................................
   1   1.0000E-10  2.0000E-10   0.000       0.000       0.000       0.000       0.000       0.000       0.000       0.000    
   2   2.0000E-10  1.0000E-10  2.0000E-10   0.000       0.000      8.0000E-10  8.0000E-10  5.0000E-10   0.000       0.000    
   3    0.000      5.0000E-10  1.0000E-10  1.0000E-10  8.0000E-10  8.0000E-10  5.0000E-10  5.0000E-10   0.000       0.000    
   4   8.0000E-10  5.0000E-10  1.0000E-10  1.0000E-10  1.0000E-10  1.0000E-10  1.0000E-10  1.0000E-10  2.0000E-10   0.000    
   5   8.0000E-10  5.0000E-10  1.0000E-10  1.0000E-10  1.0000E-10  1.0000E-10  1.0000E-10  1.0000E-10  1.0000E-10  1.0000E-10
   6   8.0000E-10  5.0000E-10  5.0000E-10  2.0000E-10  2.0000E-10  1.0000E-10  1.0000E-10  1.0000E-10  1.0000E-10  5.0000E-10
   7   8.0000E-10  5.0000E-10  5.0000E-10  2.0000E-10  2.0000E-10  1.0000E-10  1.0000E-10  2.0000E-10  2.0000E-10   0.000    
   8    0.000      5.0000E-10  5.0000E-10  2.0000E-10  2.0000E-10  1.0000E-10  1.0000E-10  2.0000E-10  5.0000E-10   0.000    
   9    0.000      5.0000E-10  5.0000E-10  2.0000E-10  2.0000E-10  1.0000E-10  1.0000E-10  2.0000E-10  5.0000E-10   0.000    
  10    0.000      5.0000E-10  5.0000E-10  2.0000E-10  2.0000E-10  1.0000E-10  1.0000E-10  2.0000E-10  5.0000E-10  8.0000E-10
  11    0.000      1.0000E-10  1.0000E-10  1.0000E-10  1.0000E-10  1.0000E-10  1.0000E-10  2.0000E-10  5.0000E-10   0.000    
  12   1.0000E-10  1.0000E-10  1.0000E-10  1.0000E-10  1.0000E-10  1.0000E-10  1.0000E-10  1.0000E-10  2.0000E-10   0.000    
  13   1.0000E-10  1.0000E-10  2.0000E-10  2.0000E-10  2.0000E-10  2.0000E-10  2.0000E-10  1.0000E-10  1.0000E-10   0.000    
  14    0.000      2.0000E-10  5.0000E-10  5.0000E-10  5.0000E-10  5.0000E-10  5.0000E-10  2.0000E-10  1.0000E-10   0.000    
  15    0.000       0.000      8.0000E-10  8.0000E-10  8.0000E-10  8.0000E-10   0.000       0.000       0.000       0.000    

                  ET RATE =  2.500000E-08

 USING ET EXTINCTION DEPTH FROM PREVIOUS STRESS PERIOD. CURRENT PERIOD IS:      41

 USING EXTINCTION WATER CONTENT FROM PREVIOUS STRESS PERIOD. CURRENT PERIOD IS:      41

 USING AIR ENTRY PRESSURE FROM PREVIOUS STRESS PERIOD. CURRENT PERIOD IS:      41

 USING ROOT PRESSURE HEAD FROM PREVIOUS STRESS PERIOD. CURRENT PERIOD IS:      41

 USING ROOT ACTIVITY FROM PREVIOUS STRESS PERIOD. CURRENT PERIOD IS:      41

 PROCESSING AG STRESS PERIOD DATA

 READING AG STRESS PERIOD DATA

 READING IRRIGATION SEGMENT

 READING IRRIGATION WELL

 READING SUPPLEMENTAL WELL

 END PROCESSING AG STRESS PERIOD DATA OPTIONS
 
 SOLVING FOR HEAD 
                                                   Max.-Head-Change                         Max.-Flux-Residual
  Residual-Control   Outer-Iter.   Inner-Iter.     Column Row Layer    Maximum-Head-Change  Column Row Layer    Maximum-Flux-Residual          L2-NORM 
          0                 1           2             3    5     1       0.8982272837E-02       5    4    1         0.4263511667E+00      0.1876911876E+01
          0                 2           2             4    6     1      -0.1641255965E-02       4    6    1        -0.8743258670E-01      0.2219942091E+00
          0                 3           2             4    6     1      -0.4213392153E-03       4    6    1        -0.2258856472E-01      0.3600985910E-01
          0                 4           1             4    6     1      -0.1082182508E-03       4    6    1        -0.5789872498E-02      0.8745599220E-02
          0                 5           1             4    6     1      -0.2780820193E-04       4    6    1        -0.1487604158E-02      0.2266099833E-02

    ------------------------------------------------
       NWT REQUIRED            5 OUTER ITERATIONS 
       AND A TOTAL OF          8 INNER ITERATIONS.
    ------------------------------------------------

 NO OUTPUT CONTROL FOR STRESS PERIOD   41   TIME STEP    1
 
 SOLVING FOR HEAD 
                                                   Max.-Head-Change                         Max.-Flux-Residual
  Residual-Control   Outer-Iter.   Inner-Iter.     Column Row Layer    Maximum-Head-Change  Column Row Layer    Maximum-Flux-Residual          L2-NORM 
          0                 1           2             3    5     1       0.8881738522E-02       5    4    1         0.4228454518E+00      0.1858072453E+01
          0                 2           2             4    6     1      -0.1547428549E-02       4    6    1        -0.8240133435E-01      0.2172882606E+00
          0                 3           2             4    6     1      -0.3973677779E-03       4    6    1        -0.2130005646E-01      0.3441743751E-01
          0                 4           1             4    6     1      -0.1020900768E-03       4    6    1        -0.5460865445E-02      0.8312421309E-02
          0                 5           1             4    6     1      -0.2624061421E-04       4    6    1        -0.1403474389E-02      0.2153335364E-02

    ------------------------------------------------
       NWT REQUIRED            5 OUTER ITERATIONS 
       AND A TOTAL OF          8 INNER ITERATIONS.
    ------------------------------------------------

 NO OUTPUT CONTROL FOR STRESS PERIOD   41   TIME STEP    2
 
 SOLVING FOR HEAD 
                                                   Max.-Head-Change                         Max.-Flux-Residual
  Residual-Control   Outer-Iter.   Inner-Iter.     Column Row Layer    Maximum-Head-Change  Column Row Layer    Maximum-Flux-Residual          L2-NORM 
          0                 1           2             3    5     1       0.8781920713E-02       5    4    1         0.4193886771E+00      0.1840128752E+01
          0                 2           2             4    6     1      -0.1458681652E-02       4    6    1        -0.7764432641E-01      0.2128695557E+00
          0                 3           2             4    6     1      -0.3746811600E-03       4    6    1        -0.2008112662E-01      0.3292849465E-01
          0                 4           1             4    6     1      -0.9628739268E-04       4    6    1        -0.5149442135E-02      0.7909661669E-02

    ------------------------------------------------
       NWT REQUIRED            4 OUTER ITERATIONS 
       AND A TOTAL OF          7 INNER ITERATIONS.
    ------------------------------------------------

 NO OUTPUT CONTROL FOR STRESS PERIOD   41   TIME STEP    3
 
 SOLVING FOR HEAD 
                                                   Max.-Head-Change                         Max.-Flux-Residual
  Residual-Control   Outer-Iter.   Inner-Iter.     Column Row Layer    Maximum-Head-Change  Column Row Layer    Maximum-Flux-Residual          L2-NORM 
          0                 1           2             3    5     1       0.8683166444E-02       6    4    1         0.4156087070E+00      0.1818907940E+01
          0                 2           2             4    6     1      -0.1374831740E-02       4    6    1        -0.7315148109E-01      0.2083622498E+00
          0                 3           2             4    6     1      -0.3532328356E-03       4    6    1        -0.1892927888E-01      0.3147117174E-01
          0                 4           1             4    6     1      -0.9079782544E-04       4    6    1        -0.4854963572E-02      0.7511810807E-02

    ------------------------------------------------
       NWT REQUIRED            4 OUTER ITERATIONS 
       AND A TOTAL OF          7 INNER ITERATIONS.
    ------------------------------------------------

 NO OUTPUT CONTROL FOR STRESS PERIOD   41   TIME STEP    4
 
 SOLVING FOR HEAD 
                                                   Max.-Head-Change                         Max.-Flux-Residual
  Residual-Control   Outer-Iter.   Inner-Iter.     Column Row Layer    Maximum-Head-Change  Column Row Layer    Maximum-Flux-Residual          L2-NORM 
          0                 1           2             3    5     1       0.8585264254E-02       6    4    1         0.4134831718E+00      0.1782326117E+01
          0                 2           2             4    6     1      -0.1295353602E-02       4    6    1        -0.6889366170E-01      0.2026203796E+00
          0                 3           2             4    6     1      -0.3328958879E-03       4    6    1        -0.1783740015E-01      0.3003252526E-01
          0                 4           1             4    6     1      -0.8559098460E-04       4    6    1        -0.4575716588E-02      0.7131524637E-02

    ------------------------------------------------
       NWT REQUIRED            4 OUTER ITERATIONS 
       AND A TOTAL OF          7 INNER ITERATIONS.
    ------------------------------------------------

 NO OUTPUT CONTROL FOR STRESS PERIOD   41   TIME STEP    5
 
 SOLVING FOR HEAD 
                                                   Max.-Head-Change                         Max.-Flux-Residual
  Residual-Control   Outer-Iter.   Inner-Iter.     Column Row Layer    Maximum-Head-Change  Column Row Layer    Maximum-Flux-Residual          L2-NORM 
          0                 1           2             3    5     1       0.8488527438E-02       6    4    1         0.4109960983E+00      0.1763866052E+01
          0                 2           2             4    6     1      -0.1219999595E-02       4    6    1        -0.6485828146E-01      0.1986823520E+00
          0                 3           2             4    7     1      -0.3154157927E-03       4    6    1        -0.1680202108E-01      0.2871034297E-01
          0                 4           1             4    7     1      -0.8181795272E-04       4    7    1        -0.4347387692E-02      0.6766006626E-02

    ------------------------------------------------
       NWT REQUIRED            4 OUTER ITERATIONS 
       AND A TOTAL OF          7 INNER ITERATIONS.
    ------------------------------------------------

 NO OUTPUT CONTROL FOR STRESS PERIOD   41   TIME STEP    6
 
 SOLVING FOR HEAD 
                                                   Max.-Head-Change                         Max.-Flux-Residual
  Residual-Control   Outer-Iter.   Inner-Iter.     Column Row Layer    Maximum-Head-Change  Column Row Layer    Maximum-Flux-Residual          L2-NORM 
          0                 1           2             3    5     1       0.8393014644E-02       6    4    1         0.4085160951E+00      0.1746517022E+01
          0                 2           2             4    7     1      -0.1166719325E-02       4    7    1        -0.6187563138E-01      0.1949930011E+00
          0                 3           2             4    7     1      -0.3024335924E-03       4    7    1        -0.1609078776E-01      0.2744871731E-01
          0                 4           1             4    7     1      -0.7840320790E-04       4    7    1        -0.4167726180E-02      0.6414823750E-02

    ------------------------------------------------
       NWT REQUIRED            4 OUTER ITERATIONS 
       AND A TOTAL OF          7 INNER ITERATIONS.
    ------------------------------------------------

 NO OUTPUT CONTROL FOR STRESS PERIOD   41   TIME STEP    7
 
 SOLVING FOR HEAD 
                                                   Max.-Head-Change                         Max.-Flux-Residual
  Residual-Control   Outer-Iter.   Inner-Iter.     Column Row Layer    Maximum-Head-Change  Column Row Layer    Maximum-Flux-Residual          L2-NORM 
          0                 1           2             3    5     1       0.8298528479E-02       6    4    1         0.4060495300E+00      0.1730170333E+01
          0                 2           2             4    7     1      -0.1118447154E-02       4    7    1        -0.5933962948E-01      0.1915373670E+00
          0                 3           2             4    7     1      -0.2897384066E-03       4    7    1        -0.1542252918E-01      0.2624621360E-01
          0                 4           1             4    7     1      -0.7506650023E-04       4    7    1        -0.3992075684E-02      0.6077526043E-02

    ------------------------------------------------
       NWT REQUIRED            4 OUTER ITERATIONS 
       AND A TOTAL OF          7 INNER ITERATIONS.
    ------------------------------------------------

 NO OUTPUT CONTROL FOR STRESS PERIOD   41   TIME STEP    8
 
 SOLVING FOR HEAD 
                                                   Max.-Head-Change                         Max.-Flux-Residual
  Residual-Control   Outer-Iter.   Inner-Iter.     Column Row Layer    Maximum-Head-Change  Column Row Layer    Maximum-Flux-Residual          L2-NORM 
          0                 1           2             3    5     1       0.8205115904E-02       6    4    1         0.4035849076E+00      0.1714725788E+01
          0                 2           2             4    7     1      -0.1071234194E-02       4    7    1        -0.5685785831E-01      0.1882995241E+00
          0                 3           2             4    7     1      -0.2773306514E-03       4    7    1        -0.1476907392E-01      0.2510051656E-01
          0                 4           1             4    7     1      -0.7180747618E-04       4    7    1        -0.3820434981E-02      0.5753370874E-02

    ------------------------------------------------
       NWT REQUIRED            4 OUTER ITERATIONS 
       AND A TOTAL OF          7 INNER ITERATIONS.
    ------------------------------------------------

 NO OUTPUT CONTROL FOR STRESS PERIOD   41   TIME STEP    9
 
 SOLVING FOR HEAD 
                                                   Max.-Head-Change                         Max.-Flux-Residual
  Residual-Control   Outer-Iter.   Inner-Iter.     Column Row Layer    Maximum-Head-Change  Column Row Layer    Maximum-Flux-Residual          L2-NORM 
          0                 1           2             3    5     1       0.8113305332E-02       6    4    1         0.4011348302E+00      0.1700091053E+01
          0                 2           2             4    7     1      -0.1025118414E-02       4    7    1        -0.5443261102E-01      0.1852643650E+00
          0                 3           2             4    7     1      -0.2652184957E-03       4    7    1        -0.1413091823E-01      0.2400964550E-01
          0                 4           1             4    7     1      -0.6862785013E-04       4    7    1        -0.3652910322E-02      0.5441855066E-02

    ------------------------------------------------
       NWT REQUIRED            4 OUTER ITERATIONS 
       AND A TOTAL OF          7 INNER ITERATIONS.
    ------------------------------------------------

 NO OUTPUT CONTROL FOR STRESS PERIOD   41   TIME STEP   10
 
 SOLVING FOR HEAD 
                                                   Max.-Head-Change                         Max.-Flux-Residual
  Residual-Control   Outer-Iter.   Inner-Iter.     Column Row Layer    Maximum-Head-Change  Column Row Layer    Maximum-Flux-Residual          L2-NORM 
          0                 1           2             3    5     1       0.8022386688E-02       6    4    1         0.3986996459E+00      0.1686207157E+01
          0                 2           2             4    7     1      -0.9800352726E-03       4    7    1        -0.5206039647E-01      0.1824210980E+00
          0                 3           2             4    7     1      -0.2533855225E-03       4    7    1        -0.1350717840E-01      0.2297249962E-01
          0                 4           1             4    7     1      -0.6552343784E-04       4    7    1        -0.3489276608E-02      0.5142637175E-02

    ------------------------------------------------
       NWT REQUIRED            4 OUTER ITERATIONS 
       AND A TOTAL OF          7 INNER ITERATIONS.
    ------------------------------------------------

 NO OUTPUT CONTROL FOR STRESS PERIOD   41   TIME STEP   11
 
 SOLVING FOR HEAD 
                                                   Max.-Head-Change                         Max.-Flux-Residual
  Residual-Control   Outer-Iter.   Inner-Iter.     Column Row Layer    Maximum-Head-Change  Column Row Layer    Maximum-Flux-Residual          L2-NORM 
          0                 1           2             3    5     1       0.7933127914E-02       6    4    1         0.3962678503E+00      0.1672992862E+01
          0                 2           2             4    7     1      -0.9360160131E-03       4    7    1        -0.4974316546E-01      0.1797560777E+00
          0                 3           2             4    7     1      -0.2418379887E-03       4    7    1        -0.1289825609E-01      0.2198757039E-01
          0                 4           1             4    7     1      -0.6249541660E-04       4    7    1        -0.3329613176E-02      0.4855314228E-02

    ------------------------------------------------
       NWT REQUIRED            4 OUTER ITERATIONS 
       AND A TOTAL OF          7 INNER ITERATIONS.
    ------------------------------------------------

 NO OUTPUT CONTROL FOR STRESS PERIOD   41   TIME STEP   12
 
 SOLVING FOR HEAD 
                                                   Max.-Head-Change                         Max.-Flux-Residual
  Residual-Control   Outer-Iter.   Inner-Iter.     Column Row Layer    Maximum-Head-Change  Column Row Layer    Maximum-Flux-Residual          L2-NORM 
          0                 1           2             3    5     1       0.7845050752E-02       6    4    1         0.3938521699E+00      0.1660396607E+01
          0                 2           2             4    7     1      -0.8930877285E-03       4    7    1        -0.4748254945E-01      0.1772599013E+00
          0                 3           2             4    7     1      -0.2305817310E-03       4    7    1        -0.1230450590E-01      0.2105367989E-01
          0                 4           1             4    7     1      -0.5954500231E-04       4    7    1        -0.3173995941E-02      0.4579511196E-02

    ------------------------------------------------
       NWT REQUIRED            4 OUTER ITERATIONS 
       AND A TOTAL OF          7 INNER ITERATIONS.
    ------------------------------------------------

 NO OUTPUT CONTROL FOR STRESS PERIOD   41   TIME STEP   13
 
 SOLVING FOR HEAD 
                                                   Max.-Head-Change                         Max.-Flux-Residual
  Residual-Control   Outer-Iter.   Inner-Iter.     Column Row Layer    Maximum-Head-Change  Column Row Layer    Maximum-Flux-Residual          L2-NORM 
          0                 1           2             3    5     1       0.7758419506E-02       6    4    1         0.3914528799E+00      0.1648369273E+01
          0                 2           2             4    7     1      -0.8512066297E-03       4    7    1        -0.4527623964E-01      0.1749198049E+00
          0                 3           2             4    7     1      -0.2196052684E-03       4    7    1        -0.1172532232E-01      0.2017003359E-01
          0                 4           1             4    7     1      -0.5666919377E-04       4    7    1        -0.3022266246E-02      0.4315106942E-02

    ------------------------------------------------
       NWT REQUIRED            4 OUTER ITERATIONS 
       AND A TOTAL OF          7 INNER ITERATIONS.
    ------------------------------------------------

 NO OUTPUT CONTROL FOR STRESS PERIOD   41   TIME STEP   14
 
 SOLVING FOR HEAD 
                                                   Max.-Head-Change                         Max.-Flux-Residual
  Residual-Control   Outer-Iter.   Inner-Iter.     Column Row Layer    Maximum-Head-Change  Column Row Layer    Maximum-Flux-Residual          L2-NORM 
          0                 1           2             3    5     1       0.7673000927E-02       6    4    1         0.3890585189E+00      0.1636862372E+01
          0                 2           2             4    7     1      -0.8103629141E-03       4    7    1        -0.4312382109E-01      0.1727287614E+00
          0                 3           2             4    7     1      -0.2089054076E-03       4    7    1        -0.1116055995E-01      0.1933572332E-01
          0                 4           1             4    7     1      -0.5386699328E-04       4    7    1        -0.2874377600E-02      0.4061829544E-02

    ------------------------------------------------
       NWT REQUIRED            4 OUTER ITERATIONS 
       AND A TOTAL OF          7 INNER ITERATIONS.
    ------------------------------------------------

 NO OUTPUT CONTROL FOR STRESS PERIOD   41   TIME STEP   15
 
 SOLVING FOR HEAD 
                                                   Max.-Head-Change                         Max.-Flux-Residual
  Residual-Control   Outer-Iter.   Inner-Iter.     Column Row Layer    Maximum-Head-Change  Column Row Layer    Maximum-Flux-Residual          L2-NORM 
          0                 1           2             3    5     1       0.7589292486E-02       6    4    1         0.3866818068E+00      0.1625847534E+01
          0                 2           2             4    7     1      -0.7706097717E-03       4    7    1        -0.4102834090E-01      0.1706788543E+00
          0                 3           2             4    7     1      -0.1984945209E-03       4    7    1        -0.1061092981E-01      0.1855075760E-01
          0                 4           1             4    7     1      -0.5114126963E-04       4    7    1        -0.2730495150E-02      0.3819665732E-02

    ------------------------------------------------
       NWT REQUIRED            4 OUTER ITERATIONS 
       AND A TOTAL OF          7 INNER ITERATIONS.
    ------------------------------------------------

 NO OUTPUT CONTROL FOR STRESS PERIOD   41   TIME STEP   16
 
 SOLVING FOR HEAD 
                                                   Max.-Head-Change                         Max.-Flux-Residual
  Residual-Control   Outer-Iter.   Inner-Iter.     Column Row Layer    Maximum-Head-Change  Column Row Layer    Maximum-Flux-Residual          L2-NORM 
          0                 1           2             3    5     1       0.7506802666E-02       6    4    1         0.3843171376E+00      0.1615278453E+01
          0                 2           2             4    7     1      -0.7318245349E-03       4    7    1        -0.3898325538E-01      0.1687588868E+00
          0                 3           2             4    7     1      -0.1883409506E-03       4    7    1        -0.1007474356E-01      0.1781295817E-01
          0                 4           1             4    7     1      -0.4848384429E-04       4    7    1        -0.2590183165E-02      0.3588212898E-02

    ------------------------------------------------
       NWT REQUIRED            4 OUTER ITERATIONS 
       AND A TOTAL OF          7 INNER ITERATIONS.
    ------------------------------------------------

 NO OUTPUT CONTROL FOR STRESS PERIOD   41   TIME STEP   17
 
 SOLVING FOR HEAD 
                                                   Max.-Head-Change                         Max.-Flux-Residual
  Residual-Control   Outer-Iter.   Inner-Iter.     Column Row Layer    Maximum-Head-Change  Column Row Layer    Maximum-Flux-Residual          L2-NORM 
          0                 1           2             3    5     1       0.7425779405E-02       6    4    1         0.3819709984E+00      0.1605132773E+01
          0                 2           2             3    5     1      -0.7224660525E-03       6    4    1        -0.3819715591E-01      0.1669637180E+00
          0                 3           2             4    7     1      -0.1784666025E-03       4    7    1        -0.9553206550E-02      0.1712329722E-01
          0                 4           1             4    7     1      -0.4590012994E-04       4    7    1        -0.2453739400E-02      0.3367784368E-02

    ------------------------------------------------
       NWT REQUIRED            4 OUTER ITERATIONS 
       AND A TOTAL OF          7 INNER ITERATIONS.
    ------------------------------------------------

 NO OUTPUT CONTROL FOR STRESS PERIOD   41   TIME STEP   18
 
 SOLVING FOR HEAD 
                                                   Max.-Head-Change                         Max.-Flux-Residual
  Residual-Control   Outer-Iter.   Inner-Iter.     Column Row Layer    Maximum-Head-Change  Column Row Layer    Maximum-Flux-Residual          L2-NORM 
          0                 1           2             3    5     1       0.7345977971E-02       6    4    1         0.3796377657E+00      0.1595381294E+01
          0                 2           2             3    5     1      -0.7146933402E-03       6    4    1        -0.3796383223E-01      0.1652849733E+00
          0                 3           2             4    7     1      -0.1688482019E-03       4    7    1        -0.9045078093E-02      0.1648041326E-01
          0                 4           1             4    7     1      -0.4338411526E-04       4    7    1        -0.2320843464E-02      0.3158173514E-02

    ------------------------------------------------
       NWT REQUIRED            4 OUTER ITERATIONS 
       AND A TOTAL OF          7 INNER ITERATIONS.
    ------------------------------------------------

 NO OUTPUT CONTROL FOR STRESS PERIOD   41   TIME STEP   19
 
 SOLVING FOR HEAD 
                                                   Max.-Head-Change                         Max.-Flux-Residual
  Residual-Control   Outer-Iter.   Inner-Iter.     Column Row Layer    Maximum-Head-Change  Column Row Layer    Maximum-Flux-Residual          L2-NORM 
          0                 1           2             3    5     1       0.7267883794E-02       6    4    1         0.3773180871E+00      0.1585992453E+01
          0                 2           2             3    5     1      -0.7070871334E-03       6    4    1        -0.3773186392E-01      0.1637159377E+00
          0                 3           2             4    7     1      -0.1594893874E-03       4    7    1        -0.8550574238E-02      0.1588446837E-01
          0                 4           1             4    7     1      -0.4093659049E-04       4    7    1        -0.2191543165E-02      0.2959713327E-02

    ------------------------------------------------
       NWT REQUIRED            4 OUTER ITERATIONS 
       AND A TOTAL OF          7 INNER ITERATIONS.
    ------------------------------------------------

 NO OUTPUT CONTROL FOR STRESS PERIOD   41   TIME STEP   20
 
 SOLVING FOR HEAD 
                                                   Max.-Head-Change                         Max.-Flux-Residual
  Residual-Control   Outer-Iter.   Inner-Iter.     Column Row Layer    Maximum-Head-Change  Column Row Layer    Maximum-Flux-Residual          L2-NORM 
          0                 1           2             3    5     1       0.7190994572E-02       6    4    1         0.3750123095E+00      0.1577020587E+01
          0                 2           2             3    5     1      -0.6995985489E-03       6    4    1        -0.3750128572E-01      0.1622896897E+00
          0                 3           2             4    7     1      -0.1506360167E-03       4    7    1        -0.8079596417E-02      0.1536602459E-01
          0                 4           1             4    7     1      -0.3864123166E-04       4    7    1        -0.2069543995E-02      0.2784335827E-02

    ------------------------------------------------
       NWT REQUIRED            4 OUTER ITERATIONS 
       AND A TOTAL OF          7 INNER ITERATIONS.
    ------------------------------------------------

 NO OUTPUT CONTROL FOR STRESS PERIOD   41   TIME STEP   21
 
 SOLVING FOR HEAD 
                                                   Max.-Head-Change                         Max.-Flux-Residual
  Residual-Control   Outer-Iter.   Inner-Iter.     Column Row Layer    Maximum-Head-Change  Column Row Layer    Maximum-Flux-Residual          L2-NORM 
          0                 1           2             6    4     1       0.7132690003E-02       6    4    1         0.3727271143E+00      0.1568511275E+01
          0                 2           2             6    4     1      -0.6938168826E-03       6    4    1        -0.3727276572E-01      0.1610402031E+00
          0                 3           1             4    7     1      -0.1425609865E-03       4    7    1        -0.7644244033E-02      0.1495866051E-01
          0                 4           1             4    7     1      -0.3658528299E-04       4    7    1        -0.1958848045E-02      0.2646635768E-02

    ------------------------------------------------
       NWT REQUIRED            4 OUTER ITERATIONS 
       AND A TOTAL OF          6 INNER ITERATIONS.
    ------------------------------------------------

 NO OUTPUT CONTROL FOR STRESS PERIOD   41   TIME STEP   22
 
 SOLVING FOR HEAD 
                                                   Max.-Head-Change                         Max.-Flux-Residual
  Residual-Control   Outer-Iter.   Inner-Iter.     Column Row Layer    Maximum-Head-Change  Column Row Layer    Maximum-Flux-Residual          L2-NORM 
          0                 1           2             6    4     1       0.7089421328E-02       6    4    1         0.3704626443E+00      0.1560011938E+01
          0                 2           2             6    4     1      -0.6896078205E-03       6    4    1        -0.3704631826E-01      0.1597330353E+00
          0                 3           1             4    7     1      -0.1342156878E-03       4    7    1        -0.7204319930E-02      0.1448330534E-01
          0                 4           1             4    7     1      -0.3439631139E-04       4    7    1        -0.1843447686E-02      0.2478228862E-02

    ------------------------------------------------
       NWT REQUIRED            4 OUTER ITERATIONS 
       AND A TOTAL OF          6 INNER ITERATIONS.
    ------------------------------------------------

 NO OUTPUT CONTROL FOR STRESS PERIOD   41   TIME STEP   23
 
 SOLVING FOR HEAD 
                                                   Max.-Head-Change                         Max.-Flux-Residual
  Residual-Control   Outer-Iter.   Inner-Iter.     Column Row Layer    Maximum-Head-Change  Column Row Layer    Maximum-Flux-Residual          L2-NORM 
          0                 1           2             6    4     1       0.7046340947E-02       6    4    1         0.3682073000E+00      0.1551805436E+01
          0                 2           2             6    4     1      -0.6854170799E-03       6    4    1        -0.3682078331E-01      0.1585138837E+00
          0                 3           1             4    7     1      -0.1260750162E-03       4    7    1        -0.6775039287E-02      0.1405282702E-01
          0                 4           1             4    7     1      -0.3226194578E-04       4    7    1        -0.1730891416E-02      0.2322066032E-02

    ------------------------------------------------
       NWT REQUIRED            4 OUTER ITERATIONS 
       AND A TOTAL OF          6 INNER ITERATIONS.
    ------------------------------------------------

 NO OUTPUT CONTROL FOR STRESS PERIOD   41   TIME STEP   24
 
 SOLVING FOR HEAD 
                                                   Max.-Head-Change                         Max.-Flux-Residual
  Residual-Control   Outer-Iter.   Inner-Iter.     Column Row Layer    Maximum-Head-Change  Column Row Layer    Maximum-Flux-Residual          L2-NORM 
          0                 1           2             6    4     1       0.7003682936E-02       6    4    1         0.3659736378E+00      0.1543897050E+01
          0                 2           2             6    4     1      -0.6812674334E-03       6    4    1        -0.3659741660E-01      0.1573860301E+00
          0                 3           1             4    7     1      -0.1182184711E-03       4    7    1        -0.6359549918E-02      0.1367325733E-01
          0                 4           1             4    7     1      -0.3020939062E-04       4    7    1        -0.1622382808E-02      0.2181350644E-02

    ------------------------------------------------
       NWT REQUIRED            4 OUTER ITERATIONS 
       AND A TOTAL OF          6 INNER ITERATIONS.
    ------------------------------------------------

 NO OUTPUT CONTROL FOR STRESS PERIOD   41   TIME STEP   25
 
 SOLVING FOR HEAD 
                                                   Max.-Head-Change                         Max.-Flux-Residual
  Residual-Control   Outer-Iter.   Inner-Iter.     Column Row Layer    Maximum-Head-Change  Column Row Layer    Maximum-Flux-Residual          L2-NORM 
          0                 1           2             6    4     1       0.6961341017E-02       6    4    1         0.3637559143E+00      0.1536415094E+01
          0                 2           2             6    4     1      -0.6771485606E-03       6    4    1        -0.3637564372E-01      0.1564202451E+00
          0                 3           1             4    7     1      -0.1113313989E-03       4    7    1        -0.5986021119E-02      0.1340586064E-01
          0                 4           1             4    7     1      -0.2846927705E-04       4    7    1        -0.1528194206E-02      0.2082514168E-02

    ------------------------------------------------
       NWT REQUIRED            4 OUTER ITERATIONS 
       AND A TOTAL OF          6 INNER ITERATIONS.
    ------------------------------------------------

 NO OUTPUT CONTROL FOR STRESS PERIOD   41   TIME STEP   26
 
 SOLVING FOR HEAD 
                                                   Max.-Head-Change                         Max.-Flux-Residual
  Residual-Control   Outer-Iter.   Inner-Iter.     Column Row Layer    Maximum-Head-Change  Column Row Layer    Maximum-Flux-Residual          L2-NORM 
          0                 1           2             6    4     1       0.6918391936E-02       6    4    1         0.3615605377E+00      0.1524997872E+01
          0                 2           2             6    4     1      -0.6729706385E-03       6    4    1        -0.3615610662E-01      0.1550061532E+00
          0                 3           1             4    7     1      -0.1040344781E-03       4    7    1        -0.5602249176E-02      0.1305832901E-01
          0                 4           1             4    7     1      -0.2654984962E-04       4    7    1        -0.1427202542E-02      0.1957699548E-02

    ------------------------------------------------
       NWT REQUIRED            4 OUTER ITERATIONS 
       AND A TOTAL OF          6 INNER ITERATIONS.
    ------------------------------------------------

 NO OUTPUT CONTROL FOR STRESS PERIOD   41   TIME STEP   27
 
 SOLVING FOR HEAD 
                                                   Max.-Head-Change                         Max.-Flux-Residual
  Residual-Control   Outer-Iter.   Inner-Iter.     Column Row Layer    Maximum-Head-Change  Column Row Layer    Maximum-Flux-Residual          L2-NORM 
          0                 1           2             6    4     1       0.6872738329E-02       6    4    1         0.3593277198E+00      0.1513578064E+01
          0                 2           2             6    4     1      -0.6685296743E-03       6    4    1        -0.3593282730E-01      0.1535856474E+00
          0                 3           1             4    7     1      -0.9689735749E-04       4    7    1        -0.5226562678E-02      0.1274283478E-01

    ------------------------------------------------
       NWT REQUIRED            3 OUTER ITERATIONS 
       AND A TOTAL OF          5 INNER ITERATIONS.
    ------------------------------------------------

 NO OUTPUT CONTROL FOR STRESS PERIOD   41   TIME STEP   28
 
 SOLVING FOR HEAD 
                                                   Max.-Head-Change                         Max.-Flux-Residual
  Residual-Control   Outer-Iter.   Inner-Iter.     Column Row Layer    Maximum-Head-Change  Column Row Layer    Maximum-Flux-Residual          L2-NORM 
          0                 1           2             6    4     1       0.6827799980E-02       6    4    1         0.3569597654E+00      0.1504536754E+01
          0                 2           2             6    4     1      -0.6641582393E-03       6    4    1        -0.3569603100E-01      0.1525148871E+00
          0                 3           1             4    7     1      -0.8998258224E-04       4    7    1        -0.4862463237E-02      0.1249228406E-01

    ------------------------------------------------
       NWT REQUIRED            3 OUTER ITERATIONS 
       AND A TOTAL OF          5 INNER ITERATIONS.
    ------------------------------------------------

 NO OUTPUT CONTROL FOR STRESS PERIOD   41   TIME STEP   29
 
 SOLVING FOR HEAD 
                                                   Max.-Head-Change                         Max.-Flux-Residual
  Residual-Control   Outer-Iter.   Inner-Iter.     Column Row Layer    Maximum-Head-Change  Column Row Layer    Maximum-Flux-Residual          L2-NORM 
          0                 1           2             6    4     1       0.6783352640E-02       6    4    1         0.3546178551E+00      0.1496013946E+01
          0                 2           2             6    4     1      -0.6598345692E-03       6    4    1        -0.3546183912E-01      0.1515333697E+00
          0                 3           1             4    7     1      -0.8321179680E-04       4    7    1        -0.4505753969E-02      0.1228122586E-01

    ------------------------------------------------
       NWT REQUIRED            3 OUTER ITERATIONS 
       AND A TOTAL OF          5 INNER ITERATIONS.
    ------------------------------------------------

 NO OUTPUT CONTROL FOR STRESS PERIOD   41   TIME STEP   30



 STREAM LISTING     PERIOD     41   STEP       30

 LAYER ROW COL. STREAM  RCH.  FLOW INTO     FLOW TO   FLOW OUT OF   OVRLND.     DIRECT     STREAM       STREAM     STREAM     STREAM   STREAMBED  STREAMBED
                SEG.NO.  NO.  STRM. RCH.    AQUIFER    STRM. RCH.    RUNOFF     PRECIP       ET          HEAD       DEPTH      WIDTH   CONDCTNC.   GRADIENT

   1    1    1     1     1    2.3624E+01  2.3872E-01   2.3386E+01  0.000E+00  0.000E+00  0.000E+00  1.09421E+03  1.157E+00  1.276E+01  5.742E-02  1.386E+00
   1    2    2     1     2    2.3386E+01  3.6908E-01   2.3016E+01  0.000E+00  0.000E+00  0.000E+00  1.08921E+03  1.153E+00  1.270E+01  8.888E-02  1.384E+00
   1    3    3     1     3    2.3016E+01  3.1417E-01   2.2702E+01  0.000E+00  0.000E+00  0.000E+00  1.08357E+03  1.147E+00  1.263E+01  7.575E-02  1.382E+00
   1    3    4     1     4    2.2702E+01  2.8881E-01   2.2414E+01  0.000E+00  0.000E+00  0.000E+00  1.07855E+03  1.143E+00  1.256E+01  6.972E-02  1.381E+00
   1    4    5     2     1    2.0414E+01  3.1702E-01   2.0096E+01  0.000E+00  0.000E+00  0.000E+00  1.07300E+03  1.064E+00  1.200E+01  7.800E-02  1.355E+00
   1    5    6     2     2    2.0096E+01  2.4333E-01   1.9853E+01  0.000E+00  0.000E+00  0.000E+00  1.06756E+03  1.055E+00  1.200E+01  6.000E-02  1.352E+00
   1    6    6     2     3    1.9853E+01  2.4286E-01   1.9610E+01  0.000E+00  0.000E+00  0.000E+00  1.06284E+03  1.048E+00  1.200E+01  6.000E-02  1.349E+00
   1    7    6     2     4    1.9610E+01  2.4240E-01   1.9368E+01  0.000E+00  0.000E+00  0.000E+00  1.05812E+03  1.040E+00  1.200E+01  6.000E-02  1.347E+00
   1    8    6     2     5    1.9368E+01  2.4193E-01   1.9126E+01  0.000E+00  0.000E+00  0.000E+00  1.05339E+03  1.032E+00  1.200E+01  6.000E-02  1.344E+00
   1    3    5     3     1    2.0000E+00  2.8252E-01   1.7175E+00  0.000E+00  0.000E+00  0.000E+00  1.07555E+03  1.909E+00  9.636E+00  7.227E-02  1.955E+00
   1    3    6     3     2    1.7175E+00  2.4905E-01   1.4684E+00  0.000E+00  0.000E+00  0.000E+00  1.07264E+03  1.727E+00  8.909E+00  6.682E-02  1.864E+00
   1    3    7     3     3    1.4684E+00  1.9718E-01   1.2712E+00  0.000E+00  0.000E+00  0.000E+00  1.06987E+03  1.555E+00  8.218E+00  5.547E-02  1.777E+00
   1    4    8     3     4    1.2712E+00  2.2567E-01   1.0456E+00  0.000E+00  0.000E+00  0.000E+00  1.06682E+03  1.364E+00  7.455E+00  6.709E-02  1.682E+00
   1    5    8     3     5    1.0456E+00  1.5790E-01   8.8768E-01  0.000E+00  0.000E+00  0.000E+00  1.06362E+03  1.164E+00  6.655E+00  4.991E-02  1.582E+00
   1    6    8     3     6    8.8768E-01  5.5980E-02   8.3170E-01  0.000E+00  0.000E+00  0.000E+00  1.06158E+03  1.036E+00  6.145E+00  1.844E-02  1.518E+00
   1    5   10     4     1    1.0000E+01  9.0919E-02   9.9091E+00  0.000E+00  0.000E+00  0.000E+00  1.07836E+03  6.368E-01  1.000E+01  2.500E-02  1.212E+00
   1    5    9     4     2    9.9091E+00  1.8158E-01   9.7275E+00  0.000E+00  0.000E+00  0.000E+00  1.07154E+03  6.315E-01  1.000E+01  5.000E-02  1.211E+00
   1    6    8     4     3    9.7275E+00  1.2689E-01   9.6006E+00  0.000E+00  0.000E+00  0.000E+00  1.06381E+03  6.256E-01  1.000E+01  3.500E-02  1.209E+00
   1    6    8     5     1    1.0432E+01  2.2686E-01   1.0205E+01  0.000E+00  0.000E+00  0.000E+00  1.05868E+03  6.790E-01  1.542E+01  6.166E-02  1.226E+00
   1    7    7     5     2    1.0205E+01  2.7894E-01   9.9265E+00  0.000E+00  0.000E+00  0.000E+00  1.05417E+03  6.732E-01  1.519E+01  7.594E-02  1.224E+00
   1    8    7     5     3    9.9265E+00  1.9221E-01   9.7343E+00  0.000E+00  0.000E+00  0.000E+00  1.04992E+03  6.676E-01  1.497E+01  5.241E-02  1.223E+00
   1    8    6     5     4    9.7343E+00  1.3577E-01   9.5985E+00  0.000E+00  0.000E+00  0.000E+00  1.04691E+03  6.637E-01  1.482E+01  3.706E-02  1.221E+00
   1    9    6     6     1    2.8725E+01  2.5941E-01   2.8465E+01  0.000E+00  0.000E+00  0.000E+00  1.04405E+03  1.324E+00  1.200E+01  6.000E-02  1.441E+00
   1   10    7     6     2    2.8465E+01  2.5898E-01   2.8206E+01  0.000E+00  0.000E+00  0.000E+00  1.03950E+03  1.316E+00  1.200E+01  6.000E-02  1.439E+00
   1   11    7     6     3    2.8206E+01  2.5855E-01   2.7948E+01  0.000E+00  0.000E+00  0.000E+00  1.03495E+03  1.309E+00  1.200E+01  6.000E-02  1.436E+00
   1   12    7     6     4    2.7948E+01  2.5811E-01   2.7689E+01  0.000E+00  0.000E+00  0.000E+00  1.03039E+03  1.302E+00  1.200E+01  6.000E-02  1.434E+00
   1   13    7     6     5    2.7689E+01  2.2720E-02   2.7667E+01  0.000E+00  0.000E+00  0.000E+00  1.02721E+03  1.298E+00  1.200E+01  2.400E-02  3.156E-01
   1   14    9     7     1    1.5000E+02  1.4249E+00   1.4858E+02  0.000E+00  0.000E+00  0.000E+00  1.03987E+03  2.287E+00  5.529E+01  5.593E-01  8.492E-01
   1   13    8     7     2    1.4858E+02  2.1090E+00   1.4647E+02  0.000E+00  0.000E+00  0.000E+00  1.03478E+03  2.278E+00  5.525E+01  6.147E-01  1.144E+00
   1   13    7     7     3    1.4647E+02  1.9129E+00   1.4455E+02  0.000E+00  0.000E+00  0.000E+00  1.02969E+03  2.267E+00  5.520E+01  5.583E-01  1.142E+00
   1   13    6     8     1    1.7222E+02  1.3375E+00   1.7088E+02  0.000E+00  0.000E+00  0.000E+00  1.02484E+03  2.962E+00  4.295E+01  4.377E-01  1.019E+00
   1   13    5     8     2    1.7088E+02  5.3450E-01   1.7035E+02  0.000E+00  0.000E+00  0.000E+00  1.01858E+03  2.956E+00  4.286E+01  4.368E-01  4.079E-01
   1   13    4     8     3    1.7035E+02 -1.3432E+00   1.7169E+02  0.000E+00  0.000E+00  0.000E+00  1.01233E+03  2.959E+00  4.290E+01  4.372E+00 -1.024E-01
   1   13    3     8     4    1.7169E+02 -3.1321E+00   1.7482E+02  0.000E+00  0.000E+00  0.000E+00  1.00610E+03  2.973E+00  4.311E+01  4.393E+00 -2.376E-01
   1   13    2     8     5    1.7482E+02 -2.5016E+00   1.7732E+02  0.000E+00  0.000E+00  0.000E+00  9.99866E+02  2.991E+00  4.337E+01  4.420E+00 -1.887E-01
   1   13    1     8     6    1.7732E+02 -1.9908E+00   1.7932E+02  0.000E+00  0.000E+00  0.000E+00  9.94881E+02  3.006E+00  4.358E+01  2.665E+00 -2.490E-01
   1    8    6     9     1    0.0000E+00  0.0000E+00   0.0000E+00  0.000E+00  0.000E+00  0.000E+00  1.07875E+03  0.000E+00  4.000E+00  0.000E+00  1.000E+00
   1    8    5     9     2    0.0000E+00  0.0000E+00   0.0000E+00  0.000E+00  0.000E+00  0.000E+00  1.07825E+03  0.000E+00  4.000E+00  0.000E+00  1.000E+00





UNSATURATED ZONE PACKAGE VOLUMETRIC BUDGET FOR  TIME STEP    30 STRESS PERIOD   41
  ------------------------------------------------------------------------------



     CUMULATIVE VOLUMES      L**3       RATES FOR THIS TIME STEP      L**3/T
     ------------------                 ------------------------

           IN:                                      IN:
           ---                                      ---
        INFILTRATION =  9920232335.1365          INFILTRATION =           0.8475

          OUT:                                     OUT:
          ----                                     ----
              UZF ET =  1295734463.4422                UZF ET =           0.8475
        UZF RECHARGE =  8209236973.3513          UZF RECHARGE =           4.0981

            IN - OUT =   415260898.3430              IN - OUT =          -4.0981

          STORAGE:                                 STORAGE:
          --------                                 --------
      STORAGE CHANGE =   416384771.4531        STORAGE CHANGE =          -4.0981

 PERCENT DISCREPANCY IS DIFFERENCE BETWEEN IN-OUT MINUS CHANGE IN STORAGE
 DIVIDED BY THE AVERAGE OF IN AND OUT TIMES 100

 PERCENT DISCREPANCY =          -0.00     PERCENT DISCREPANCY =           0.00






1
  VOLUMETRIC BUDGET FOR AGRICULTURAL FIELDS AT  END OF TIME STEP   30, STRESS PERIOD  41
  ------------------------------------------------------------------------------

     CUMULATIVE VOLUMES      L**3       RATES FOR THIS TIME STEP      L**3/T
     ------------------                 ------------------------

           IN:                                      IN:
           ---                                      ---
               AG WELLS  =  9374535680.0000                 AG WELLS  =           0.0000
      DIVERSION SEGMENTS =   456493472.0000        DIVERSION SEGMENTS =           0.0000
           GW IRRIGATION =           0.0000             GW IRRIGATION =           0.0000
           SW IRRIGATION =           0.0000             SW IRRIGATION =           0.0000
        SYSTEM LOSSES GW =           0.0000          SYSTEM LOSSES GW =           0.0000
        SYSTEM LOSSES SW =           0.0000          SYSTEM LOSSES SW =           0.0000

                TOTAL IN =  9831028736.0000                  TOTAL IN =           0.0000

          OUT:                                     OUT:
          ----                                     ----
               AG WELLS  =           0.0000                 AG WELLS  =           0.0000
      DIVERSION SEGMENTS =           0.0000        DIVERSION SEGMENTS =           0.0000
           GW IRRIGATION =  9374535680.0000             GW IRRIGATION =           0.0000
           SW IRRIGATION =   456501856.0000             SW IRRIGATION =           0.0000
        SYSTEM LOSSES GW =           0.0000          SYSTEM LOSSES GW =           0.0000
        SYSTEM LOSSES SW =           0.0000          SYSTEM LOSSES SW =           0.0000

               TOTAL OUT =  9831037952.0000                 TOTAL OUT =           0.0000

                IN - OUT =       -9216.0000                  IN - OUT =           0.0000

     PERCENT DISCREPANCY =          -0.00         PERCENT DISCREPANCY =           0.00



1
  VOLUMETRIC BUDGET FOR ENTIRE MODEL AT END OF TIME STEP   30, STRESS PERIOD  41
  ------------------------------------------------------------------------------

     CUMULATIVE VOLUMES      L**3       RATES FOR THIS TIME STEP      L**3/T
     ------------------                 ------------------------

           IN:                                      IN:
           ---                                      ---
             STORAGE     =  8202493952.0000               STORAGE     =           1.5911
       CONSTANT HEAD     =           0.0000         CONSTANT HEAD     =           0.0000
     HEAD DEP BOUNDS     =    30474350.0000       HEAD DEP BOUNDS     =           0.2918
      STREAM LEAKAGE     =  1299913856.0000        STREAM LEAKAGE     =          13.2763
        UZF RECHARGE     =  8209236480.0000          UZF RECHARGE     =           4.0981
               GW ET     =           0.0000                 GW ET     =           0.0000
     SURFACE LEAKAGE     =           0.0000       SURFACE LEAKAGE     =           0.0000
           AG WELLS      =           0.0000             AG WELLS      =           0.0000

                TOTAL IN = 17742118912.0000                  TOTAL IN =          19.2573

          OUT:                                     OUT:
          ----                                     ----
             STORAGE     =  7354878464.0000               STORAGE     =          10.0026
       CONSTANT HEAD     =           0.0000         CONSTANT HEAD     =           0.0000
     HEAD DEP BOUNDS     =    30300296.0000       HEAD DEP BOUNDS     =           0.2899
      STREAM LEAKAGE     =   982272064.0000        STREAM LEAKAGE     =           8.9677
        UZF RECHARGE     =           0.0000          UZF RECHARGE     =           0.0000
               GW ET     =           0.0000                 GW ET     =           0.0000
     SURFACE LEAKAGE     =           0.0000       SURFACE LEAKAGE     =           0.0000
           AG WELLS      =  9374535680.0000             AG WELLS      =           0.0000

               TOTAL OUT = 17741985792.0000                 TOTAL OUT =          19.2602

                IN - OUT =      133120.0000                  IN - OUT =      -2.9049E-03

     PERCENT DISCREPANCY =           0.00         PERCENT DISCREPANCY =          -0.02






         TIME SUMMARY AT END OF TIME STEP   30 IN STRESS PERIOD   41
                    SECONDS     MINUTES      HOURS       DAYS        YEARS
                    -----------------------------------------------------------
   TIME STEP LENGTH  87667.      1461.1      24.352      1.0147     2.77799E-03
 STRESS PERIOD TIME 2.63000E+06  43833.      730.56      30.440     8.33397E-02
         TOTAL TIME 1.05286E+08 1.75476E+06  29246.      1218.6      3.3363    
1
1
                            STRESS PERIOD NO.   42, LENGTH =   2630000.    
                            -----------------------------------------------

                              NUMBER OF TIME STEPS =    30

                               MULTIPLIER FOR DELT =     1.000

                            INITIAL TIME STEP SIZE =   87666.66    

 REUSING NON-PARAMETER GHB CELLS FROM LAST STRESS PERIOD

      2 GHB CELLS

 REUSING STREAM SEGMENT DATA FROM LAST STRESS PERIOD



            AREAL INFILTRATION RATE
 READING ON UNIT   19 WITH FORMAT: (FREE)              

            1           2           3           4           5           6           7           8           9          10
 ........................................................................................................................
   1   1.0000E-10  2.0000E-10   0.000       0.000       0.000       0.000       0.000       0.000       0.000       0.000    
   2   2.0000E-10  1.0000E-10  2.0000E-10   0.000       0.000      8.0000E-10  8.0000E-10  5.0000E-10   0.000       0.000    
   3    0.000      5.0000E-10  1.0000E-10  1.0000E-10  8.0000E-10  8.0000E-10  5.0000E-10  5.0000E-10   0.000       0.000    
   4   8.0000E-10  5.0000E-10  1.0000E-10  1.0000E-10  1.0000E-10  1.0000E-10  1.0000E-10  1.0000E-10  2.0000E-10   0.000    
   5   8.0000E-10  5.0000E-10  1.0000E-10  1.0000E-10  1.0000E-10  1.0000E-10  1.0000E-10  1.0000E-10  1.0000E-10  1.0000E-10
   6   8.0000E-10  5.0000E-10  5.0000E-10  2.0000E-10  2.0000E-10  1.0000E-10  1.0000E-10  1.0000E-10  1.0000E-10  5.0000E-10
   7   8.0000E-10  5.0000E-10  5.0000E-10  2.0000E-10  2.0000E-10  1.0000E-10  1.0000E-10  2.0000E-10  2.0000E-10   0.000    
   8    0.000      5.0000E-10  5.0000E-10  2.0000E-10  2.0000E-10  1.0000E-10  1.0000E-10  2.0000E-10  5.0000E-10   0.000    
   9    0.000      5.0000E-10  5.0000E-10  2.0000E-10  2.0000E-10  1.0000E-10  1.0000E-10  2.0000E-10  5.0000E-10   0.000    
  10    0.000      5.0000E-10  5.0000E-10  2.0000E-10  2.0000E-10  1.0000E-10  1.0000E-10  2.0000E-10  5.0000E-10  8.0000E-10
  11    0.000      1.0000E-10  1.0000E-10  1.0000E-10  1.0000E-10  1.0000E-10  1.0000E-10  2.0000E-10  5.0000E-10   0.000    
  12   1.0000E-10  1.0000E-10  1.0000E-10  1.0000E-10  1.0000E-10  1.0000E-10  1.0000E-10  1.0000E-10  2.0000E-10   0.000    
  13   1.0000E-10  1.0000E-10  2.0000E-10  2.0000E-10  2.0000E-10  2.0000E-10  2.0000E-10  1.0000E-10  1.0000E-10   0.000    
  14    0.000      2.0000E-10  5.0000E-10  5.0000E-10  5.0000E-10  5.0000E-10  5.0000E-10  2.0000E-10  1.0000E-10   0.000    
  15    0.000       0.000      8.0000E-10  8.0000E-10  8.0000E-10  8.0000E-10   0.000       0.000       0.000       0.000    

                  ET RATE =  5.000000E-08

 USING ET EXTINCTION DEPTH FROM PREVIOUS STRESS PERIOD. CURRENT PERIOD IS:      42

 USING EXTINCTION WATER CONTENT FROM PREVIOUS STRESS PERIOD. CURRENT PERIOD IS:      42

 USING AIR ENTRY PRESSURE FROM PREVIOUS STRESS PERIOD. CURRENT PERIOD IS:      42

 USING ROOT PRESSURE HEAD FROM PREVIOUS STRESS PERIOD. CURRENT PERIOD IS:      42

 USING ROOT ACTIVITY FROM PREVIOUS STRESS PERIOD. CURRENT PERIOD IS:      42

 PROCESSING AG STRESS PERIOD DATA

 READING AG STRESS PERIOD DATA

 READING IRRIGATION SEGMENT

 READING IRRIGATION WELL

 READING SUPPLEMENTAL WELL

 END PROCESSING AG STRESS PERIOD DATA OPTIONS
 
 SOLVING FOR HEAD 
                                                   Max.-Head-Change                         Max.-Flux-Residual
  Residual-Control   Outer-Iter.   Inner-Iter.     Column Row Layer    Maximum-Head-Change  Column Row Layer    Maximum-Flux-Residual          L2-NORM 
          0                 1           2             6    4     1       0.6739609910E-02       6    4    1         0.3523133236E+00      0.1487952836E+01
          0                 2           2             4    7     1      -0.1914485860E+01       4    7    1        -0.1000163139E+03      0.2449482828E+03
          0                 3           2             4    7     1       0.1732523794E+00       4    7    1         0.9344903550E+01      0.1928719644E+02
          0                 4           2             4    7     1      -0.1179575486E-01       4    7    1        -0.6567103526E+00      0.1210776981E+01
          0                 5           2             4    7     1       0.4693605952E-03       5    7    1         0.2698358420E-01      0.4692001915E-01
          0                 6           1             4    7     1      -0.5787427510E-05       5    7    1        -0.3448060349E-03      0.6110922665E-03

    ------------------------------------------------
       NWT REQUIRED            6 OUTER ITERATIONS 
       AND A TOTAL OF         11 INNER ITERATIONS.
    ------------------------------------------------

 NO OUTPUT CONTROL FOR STRESS PERIOD   42   TIME STEP    1
 
 SOLVING FOR HEAD 
                                                   Max.-Head-Change                         Max.-Flux-Residual
  Residual-Control   Outer-Iter.   Inner-Iter.     Column Row Layer    Maximum-Head-Change  Column Row Layer    Maximum-Flux-Residual          L2-NORM 
          0                 1           2             5    8     1       0.4150556212E-01       5    8    1         0.2301274085E+01      0.5057332980E+01
          0                 2           2             5    8     1      -0.4037766398E-02       5    8    1        -0.2301251342E+00      0.5061101463E+00
          0                 3           2             5    8     1       0.2749572455E-03       5    8    1         0.1610878815E-01      0.3542756004E-01
          0                 4           1             5    8     1      -0.1094080474E-04       5    8    1        -0.6588502570E-03      0.1448981239E-02

    ------------------------------------------------
       NWT REQUIRED            4 OUTER ITERATIONS 
       AND A TOTAL OF          7 INNER ITERATIONS.
    ------------------------------------------------

 NO OUTPUT CONTROL FOR STRESS PERIOD   42   TIME STEP    2
 
 SOLVING FOR HEAD 
                                                   Max.-Head-Change                         Max.-Flux-Residual
  Residual-Control   Outer-Iter.   Inner-Iter.     Column Row Layer    Maximum-Head-Change  Column Row Layer    Maximum-Flux-Residual          L2-NORM 
          0                 1           2             5    8     1       0.3893185038E-01       5    8    1         0.2156850329E+01      0.4777213828E+01
          0                 2           2             5    8     1      -0.3787330760E-02       5    8    1        -0.2156831033E+00      0.4771793382E+00
          0                 3           2             5    8     1       0.2579034569E-03       5    8    1         0.1509784198E-01      0.3340240115E-01
          0                 4           1             5    8     1      -0.1026221871E-04       5    8    1        -0.6175025164E-03      0.1366144270E-02

    ------------------------------------------------
       NWT REQUIRED            4 OUTER ITERATIONS 
       AND A TOTAL OF          7 INNER ITERATIONS.
    ------------------------------------------------

 NO OUTPUT CONTROL FOR STRESS PERIOD   42   TIME STEP    3
 
 SOLVING FOR HEAD 
                                                   Max.-Head-Change                         Max.-Flux-Residual
  Residual-Control   Outer-Iter.   Inner-Iter.     Column Row Layer    Maximum-Head-Change  Column Row Layer    Maximum-Flux-Residual          L2-NORM 
          0                 1           2             5    8     1       0.3654616792E-01       5    8    1         0.2023112526E+01      0.4517441007E+01
          0                 2           2             5    8     1      -0.3554926062E-02       5    8    1        -0.2023095994E+00      0.4519694904E+00
          0                 3           2             5    8     1       0.2420775201E-03       5    8    1         0.1416169406E-01      0.3163770135E-01
          0                 4           1             5    8     1      -0.9632489851E-05       5    8    1        -0.5792140178E-03      0.1293970095E-02

    ------------------------------------------------
       NWT REQUIRED            4 OUTER ITERATIONS 
       AND A TOTAL OF          7 INNER ITERATIONS.
    ------------------------------------------------

 NO OUTPUT CONTROL FOR STRESS PERIOD   42   TIME STEP    4
 
 SOLVING FOR HEAD 
                                                   Max.-Head-Change                         Max.-Flux-Residual
  Residual-Control   Outer-Iter.   Inner-Iter.     Column Row Layer    Maximum-Head-Change  Column Row Layer    Maximum-Flux-Residual          L2-NORM 
          0                 1           2             5    8     1       0.3433410039E-01       5    8    1         0.1899161145E+01      0.4276520689E+01
          0                 2           2             5    8     1      -0.3339751803E-02       5    8    1        -0.1899146990E+00      0.4276448838E+00
          0                 3           2             5    8     1       0.2274249180E-03       5    8    1         0.1329404842E-01      0.2993501100E-01
          0                 4           1             5    8     1      -0.9049449489E-05       5    8    1        -0.5437272800E-03      0.1224313398E-02

    ------------------------------------------------
       NWT REQUIRED            4 OUTER ITERATIONS 
       AND A TOTAL OF          7 INNER ITERATIONS.
    ------------------------------------------------

 NO OUTPUT CONTROL FOR STRESS PERIOD   42   TIME STEP    5
 
 SOLVING FOR HEAD 
                                                   Max.-Head-Change                         Max.-Flux-Residual
  Residual-Control   Outer-Iter.   Inner-Iter.     Column Row Layer    Maximum-Head-Change  Column Row Layer    Maximum-Flux-Residual          L2-NORM 
          0                 1           2             5    8     1       0.3228130488E-01       5    8    1         0.1784201098E+01      0.4052318719E+01
          0                 2           2             5    8     1      -0.3360512527E-02       5    8    1        -0.1905548872E+00      0.4239706035E+00
          0                 3           2             4    7     1      -0.4664963400E-03       4    7    1        -0.2460405591E-01      0.4803142958E-01
          0                 4           2             4    7     1       0.5676706587E-03       4    7    1         0.3051973034E-01      0.7253368943E-01
          0                 5           1             5    7     1       0.8139393571E-04       5    8    1         0.4555669746E-02      0.1093832404E-01

    ------------------------------------------------
       NWT REQUIRED            5 OUTER ITERATIONS 
       AND A TOTAL OF          9 INNER ITERATIONS.
    ------------------------------------------------

 NO OUTPUT CONTROL FOR STRESS PERIOD   42   TIME STEP    6
 
 SOLVING FOR HEAD 
                                                   Max.-Head-Change                         Max.-Flux-Residual
  Residual-Control   Outer-Iter.   Inner-Iter.     Column Row Layer    Maximum-Head-Change  Column Row Layer    Maximum-Flux-Residual          L2-NORM 
          0                 1           2             5    8     1       0.3037731032E-01       5    8    1         0.1677635787E+01      0.3843986675E+01
          0                 2           2             4    7     1      -0.1863165976E+01       5    8    1        -0.1001677625E+03      0.2451898385E+03
          0                 3           2             4    7     1       0.1268552109E+00       5    8    1         0.7009480342E+01      0.1716443786E+02
          0                 4           2             4    7     1      -0.5047780600E-02       5    6    1        -0.2865727885E+00      0.7030473181E+00
          0                 5           1             4    7     1       0.6224116966E-04       4    7    1         0.3626824517E-02      0.9363856503E-02

    ------------------------------------------------
       NWT REQUIRED            5 OUTER ITERATIONS 
       AND A TOTAL OF          9 INNER ITERATIONS.
    ------------------------------------------------

 NO OUTPUT CONTROL FOR STRESS PERIOD   42   TIME STEP    7
 
 SOLVING FOR HEAD 
                                                   Max.-Head-Change                         Max.-Flux-Residual
  Residual-Control   Outer-Iter.   Inner-Iter.     Column Row Layer    Maximum-Head-Change  Column Row Layer    Maximum-Flux-Residual          L2-NORM 
          0                 1           2             5    8     1       0.8234785659E-01       5    8    1         0.4543474209E+01      0.9775889395E+01
          0                 2           2             5    8     1      -0.8010083827E-02       5    8    1        -0.4543392835E+00      0.9775560617E+00
          0                 3           2             5    8     1       0.5454581648E-03       5    8    1         0.3180384091E-01      0.6842925107E-01
          0                 4           1             5    8     1      -0.2170428557E-04       5    8    1        -0.1300778541E-02      0.2798758890E-02

    ------------------------------------------------
       NWT REQUIRED            4 OUTER ITERATIONS 
       AND A TOTAL OF          7 INNER ITERATIONS.
    ------------------------------------------------

 NO OUTPUT CONTROL FOR STRESS PERIOD   42   TIME STEP    8
 
 SOLVING FOR HEAD 
                                                   Max.-Head-Change                         Max.-Flux-Residual
  Residual-Control   Outer-Iter.   Inner-Iter.     Column Row Layer    Maximum-Head-Change  Column Row Layer    Maximum-Flux-Residual          L2-NORM 
          0                 1           2             5    8     1       0.7762580714E-01       5    8    1         0.4279250677E+01      0.9284384850E+01
          0                 2           2             5    8     1      -0.7550771949E-02       5    8    1        -0.4279179641E+00      0.9284024843E+00
          0                 3           2             5    8     1       0.5141805844E-03       5    8    1         0.2995433799E-01      0.6498846434E-01
          0                 4           1             5    8     1      -0.2045972213E-04       5    8    1        -0.1225133814E-02      0.2658026648E-02

    ------------------------------------------------
       NWT REQUIRED            4 OUTER ITERATIONS 
       AND A TOTAL OF          7 INNER ITERATIONS.
    ------------------------------------------------

 NO OUTPUT CONTROL FOR STRESS PERIOD   42   TIME STEP    9
 
 SOLVING FOR HEAD 
                                                   Max.-Head-Change                         Max.-Flux-Residual
  Residual-Control   Outer-Iter.   Inner-Iter.     Column Row Layer    Maximum-Head-Change  Column Row Layer    Maximum-Flux-Residual          L2-NORM 
          0                 1           2             5    8     1       0.7323768730E-01       5    8    1         0.4033870169E+01      0.8826324152E+01
          0                 2           2             5    8     1      -0.7123940169E-02       5    8    1        -0.4033807958E+00      0.8826061673E+00
          0                 3           2             5    8     1       0.4851147992E-03       5    8    1         0.2823672711E-01      0.6178272435E-01
          0                 4           1             5    8     1      -0.1930316822E-04       5    8    1        -0.1154883478E-02      0.2527091298E-02

    ------------------------------------------------
       NWT REQUIRED            4 OUTER ITERATIONS 
       AND A TOTAL OF          7 INNER ITERATIONS.
    ------------------------------------------------

 NO OUTPUT CONTROL FOR STRESS PERIOD   42   TIME STEP   10
 
 SOLVING FOR HEAD 
                                                   Max.-Head-Change                         Max.-Flux-Residual
  Residual-Control   Outer-Iter.   Inner-Iter.     Column Row Layer    Maximum-Head-Change  Column Row Layer    Maximum-Flux-Residual          L2-NORM 
          0                 1           2             5    8     1       0.6915725918E-01       5    8    1         0.3805842570E+01      0.8399057472E+01
          0                 2           2             5    8     1      -0.6727036598E-02       5    8    1        -0.3805787913E+00      0.8398822559E+00
          0                 3           2             5    8     1       0.4580870317E-03       5    8    1         0.2664057897E-01      0.5879199236E-01
          0                 4           1             5    8     1      -0.1822770834E-04       5    8    1        -0.1089600952E-02      0.2404595105E-02

    ------------------------------------------------
       NWT REQUIRED            4 OUTER ITERATIONS 
       AND A TOTAL OF          7 INNER ITERATIONS.
    ------------------------------------------------

 NO OUTPUT CONTROL FOR STRESS PERIOD   42   TIME STEP   11
 
 SOLVING FOR HEAD 
                                                   Max.-Head-Change                         Max.-Flux-Residual
  Residual-Control   Outer-Iter.   Inner-Iter.     Column Row Layer    Maximum-Head-Change  Column Row Layer    Maximum-Flux-Residual          L2-NORM 
          0                 1           2             5    8     1       0.6536043901E-01       5    8    1         0.3593799677E+01      0.8000150030E+01
          0                 2           2             5    8     1      -0.6564682823E-02       5    8    1        -0.3707694735E+00      0.8209267882E+00
          0                 3           2             6    7     1      -0.2445583696E-03       6    7    1        -0.1387351535E-01      0.3791583705E-01
          0                 4           2             4    7     1      -0.4939931923E-02       5    8    1        -0.2661917185E+00      0.6511351724E+00
          0                 5           2             4    7     1       0.5521943040E-02       5    7    1         0.3051842422E+00      0.7252136425E+00
          0                 6           2             4    7     1      -0.2274129895E-01       5    7    1        -0.1290171634E+01      0.3131695942E+01
          0                 7           2             4    7     1       0.2231130383E-01       5    7    1         0.1302615121E+01      0.3089890321E+01
          0                 8           2             4    8     1       0.1325959245E-02       5    8    1         0.8358635189E-01      0.1689670923E+00
          0                 9           1             4    8     1       0.8886377578E-04       5    8    1         0.5618573961E-02      0.1123026777E-01

    ------------------------------------------------
       NWT REQUIRED            9 OUTER ITERATIONS 
       AND A TOTAL OF         17 INNER ITERATIONS.
    ------------------------------------------------

 NO OUTPUT CONTROL FOR STRESS PERIOD   42   TIME STEP   12
 
 SOLVING FOR HEAD 
                                                   Max.-Head-Change                         Max.-Flux-Residual
  Residual-Control   Outer-Iter.   Inner-Iter.     Column Row Layer    Maximum-Head-Change  Column Row Layer    Maximum-Flux-Residual          L2-NORM 
          0                 1           2             5    8     1       0.6182541022E-01       5    8    1         0.3396510614E+01      0.7627575108E+01
          0                 2           2             5    8     1      -0.6013864237E-02       5    8    1        -0.3396467629E+00      0.7624811532E+00
          0                 3           2             5    8     1       0.4095224689E-03       5    8    1         0.2377532435E-01      0.5337379778E-01
          0                 4           1             5    8     1      -0.1629527971E-04       5    8    1        -0.9724119327E-03      0.2182990981E-02

    ------------------------------------------------
       NWT REQUIRED            4 OUTER ITERATIONS 
       AND A TOTAL OF          7 INNER ITERATIONS.
    ------------------------------------------------

 NO OUTPUT CONTROL FOR STRESS PERIOD   42   TIME STEP   13
 
 SOLVING FOR HEAD 
                                                   Max.-Head-Change                         Max.-Flux-Residual
  Residual-Control   Outer-Iter.   Inner-Iter.     Column Row Layer    Maximum-Head-Change  Column Row Layer    Maximum-Flux-Residual          L2-NORM 
          0                 1           2             5    8     1       0.5853167921E-01       5    8    1         0.3212798516E+01      0.7279132294E+01
          0                 2           2             4    7     1      -0.1864892801E+01       5    8    1        -0.1003212760E+03      0.2455032589E+03
          0                 3           2             4    7     1       0.1269730473E+00       5    8    1         0.7020279904E+01      0.1719834217E+02
          0                 4           2             4    7     1      -0.5052468894E-02       5    8    1        -0.2870117909E+00      0.7045044951E+00
          0                 5           1             4    7     1       0.6229897985E-04       4    8    1         0.3631215505E-02      0.9145380824E-02

    ------------------------------------------------
       NWT REQUIRED            5 OUTER ITERATIONS 
       AND A TOTAL OF          9 INNER ITERATIONS.
    ------------------------------------------------

 NO OUTPUT CONTROL FOR STRESS PERIOD   42   TIME STEP   14
 
 SOLVING FOR HEAD 
                                                   Max.-Head-Change                         Max.-Flux-Residual
  Residual-Control   Outer-Iter.   Inner-Iter.     Column Row Layer    Maximum-Head-Change  Column Row Layer    Maximum-Flux-Residual          L2-NORM 
          0                 1           2             5    8     1       0.1092010147E+00       5    8    1         0.6006417361E+01      0.1315014621E+02
          0                 2           2             5    8     1      -0.1062208326E-01       5    8    1        -0.6006280120E+00      0.1314956033E+01
          0                 3           2             5    8     1       0.7233264311E-03       5    8    1         0.4204410918E-01      0.9204729931E-01
          0                 4           1             5    8     1      -0.2878182687E-04       5    8    1        -0.1719605866E-02      0.3764723893E-02

    ------------------------------------------------
       NWT REQUIRED            4 OUTER ITERATIONS 
       AND A TOTAL OF          7 INNER ITERATIONS.
    ------------------------------------------------

 NO OUTPUT CONTROL FOR STRESS PERIOD   42   TIME STEP   15
 
 SOLVING FOR HEAD 
                                                   Max.-Head-Change                         Max.-Flux-Residual
  Residual-Control   Outer-Iter.   Inner-Iter.     Column Row Layer    Maximum-Head-Change  Column Row Layer    Maximum-Flux-Residual          L2-NORM 
          0                 1           2             5    8     1       0.1032606163E+00       5    8    1         0.5674658522E+01      0.1253934304E+02
          0                 2           2             5    8     1      -0.1004426710E-01       5    8    1        -0.5674537091E+00      0.1253881816E+01
          0                 3           2             5    8     1       0.6839790712E-03       5    8    1         0.3972189202E-01      0.8777206429E-01
          0                 4           1             5    8     1      -0.2721615943E-04       5    8    1        -0.1624627113E-02      0.3589872217E-02

    ------------------------------------------------
       NWT REQUIRED            4 OUTER ITERATIONS 
       AND A TOTAL OF          7 INNER ITERATIONS.
    ------------------------------------------------

 NO OUTPUT CONTROL FOR STRESS PERIOD   42   TIME STEP   16
 
 SOLVING FOR HEAD 
                                                   Max.-Head-Change                         Max.-Flux-Residual
  Residual-Control   Outer-Iter.   Inner-Iter.     Column Row Layer    Maximum-Head-Change  Column Row Layer    Maximum-Flux-Residual          L2-NORM 
          0                 1           2             5    8     1       0.9772963566E-01       5    8    1         0.5365969583E+01      0.1196877978E+02
          0                 2           2             5    8     1      -0.9506273004E-02       5    8    1        -0.5365861764E+00      0.1196830927E+01
          0                 3           2             5    8     1       0.6473434774E-03       5    8    1         0.3756115092E-01      0.8377844680E-01
          0                 4           1             5    8     1      -0.2575839591E-04       5    8    1        -0.1536252741E-02      0.3426524710E-02

    ------------------------------------------------
       NWT REQUIRED            4 OUTER ITERATIONS 
       AND A TOTAL OF          7 INNER ITERATIONS.
    ------------------------------------------------

 NO OUTPUT CONTROL FOR STRESS PERIOD   42   TIME STEP   17
 
 SOLVING FOR HEAD 
                                                   Max.-Head-Change                         Max.-Flux-Residual
  Residual-Control   Outer-Iter.   Inner-Iter.     Column Row Layer    Maximum-Head-Change  Column Row Layer    Maximum-Flux-Residual          L2-NORM 
          0                 1           2             5    8     1       0.9257642822E-01       5    8    1         0.5078555132E+01      0.1143531095E+02
          0                 2           2             5    8     1      -0.9005023298E-02       5    8    1        -0.5078459067E+00      0.1143488880E+01
          0                 3           2             5    8     1       0.6132100655E-03       5    8    1         0.3554932005E-01      0.8004448926E-01
          0                 4           1             5    8     1      -0.2440019612E-04       5    8    1        -0.1453968779E-02      0.3273814605E-02

    ------------------------------------------------
       NWT REQUIRED            4 OUTER ITERATIONS 
       AND A TOTAL OF          7 INNER ITERATIONS.
    ------------------------------------------------

 NO OUTPUT CONTROL FOR STRESS PERIOD   42   TIME STEP   18
 
 SOLVING FOR HEAD 
                                                   Max.-Head-Change                         Max.-Flux-Residual
  Residual-Control   Outer-Iter.   Inner-Iter.     Column Row Layer    Maximum-Head-Change  Column Row Layer    Maximum-Flux-Residual          L2-NORM 
          0                 1           2             5    8     1       0.8777193448E-01       5    8    1         0.4810766661E+01      0.1093605629E+02
          0                 2           2             4    7     1      -0.1866475246E+01       5    8    1        -0.1004810680E+03      0.2458145743E+03
          0                 3           2             4    7     1       0.1270809126E+00       5    8    1         0.7031522684E+01      0.1722012990E+02
          0                 4           2             4    7     1      -0.5056760395E-02       5    8    1        -0.2874771154E+00      0.7056310774E+00
          0                 5           1             4    7     1       0.6235189667E-04       5    6    1         0.3636040728E-02      0.9249704819E-02

    ------------------------------------------------
       NWT REQUIRED            5 OUTER ITERATIONS 
       AND A TOTAL OF          9 INNER ITERATIONS.
    ------------------------------------------------

 NO OUTPUT CONTROL FOR STRESS PERIOD   42   TIME STEP   19
 
 SOLVING FOR HEAD 
                                                   Max.-Head-Change                         Max.-Flux-Residual
  Residual-Control   Outer-Iter.   Inner-Iter.     Column Row Layer    Maximum-Head-Change  Column Row Layer    Maximum-Flux-Residual          L2-NORM 
          0                 1           2             5    8     1       0.1370264320E+00       5    8    1         0.7525661254E+01      0.1664959665E+02
          0                 2           2             4    7     1      -0.1867569194E+01       5    8    1        -0.1007525447E+03      0.2462435850E+03
          0                 3           2             4    7     1       0.1271557143E+00       5    8    1         0.7050635838E+01      0.1725033040E+02
          0                 4           2             4    7     1      -0.5059735288E-02       5    8    1        -0.2882698853E+00      0.7066985017E+00
          0                 5           1             4    7     1       0.6238858130E-04       5    6    1         0.3646189502E-02      0.9172259653E-02

    ------------------------------------------------
       NWT REQUIRED            5 OUTER ITERATIONS 
       AND A TOTAL OF          9 INNER ITERATIONS.
    ------------------------------------------------

 NO OUTPUT CONTROL FOR STRESS PERIOD   42   TIME STEP   20
 
 SOLVING FOR HEAD 
                                                   Max.-Head-Change                         Max.-Flux-Residual
  Residual-Control   Outer-Iter.   Inner-Iter.     Column Row Layer    Maximum-Head-Change  Column Row Layer    Maximum-Flux-Residual          L2-NORM 
          0                 1           2             5    8     1       0.1835033137E+00       5    8    1         0.1008510020E+02      0.2211419721E+02
          0                 2           2             4    7     1      -0.1868726835E+01       5    8    1        -0.1010084713E+03      0.2466579890E+03
          0                 3           2             4    7     1       0.1272348297E+00       5    8    1         0.7068653766E+01      0.1727941486E+02
          0                 4           2             4    7     1      -0.5062881942E-02       5    8    1        -0.2890171286E+00      0.7078776469E+00
          0                 5           1             4    7     1       0.6242738313E-04       5    8    1         0.3656219177E-02      0.9181909273E-02

    ------------------------------------------------
       NWT REQUIRED            5 OUTER ITERATIONS 
       AND A TOTAL OF          9 INNER ITERATIONS.
    ------------------------------------------------

 NO OUTPUT CONTROL FOR STRESS PERIOD   42   TIME STEP   21
 
 SOLVING FOR HEAD 
                                                   Max.-Head-Change                         Max.-Flux-Residual
  Residual-Control   Outer-Iter.   Inner-Iter.     Column Row Layer    Maximum-Head-Change  Column Row Layer    Maximum-Flux-Residual          L2-NORM 
          0                 1           2             5    8     1       0.2273984001E+00       5    8    1         0.1250014389E+02      0.2732850287E+02
          0                 2           2             4    7     1      -0.1869941751E+01       5    8    1        -0.1012495834E+03      0.2470583679E+03
          0                 3           2             4    7     1       0.1273178241E+00       5    8    1         0.7085627876E+01      0.1730754067E+02
          0                 4           2             4    7     1      -0.5066183049E-02       5    8    1        -0.2897210030E+00      0.7090225514E+00
          0                 5           1             4    7     1       0.6246808943E-04       5    8    1         0.3665794409E-02      0.9192403188E-02

    ------------------------------------------------
       NWT REQUIRED            5 OUTER ITERATIONS 
       AND A TOTAL OF          9 INNER ITERATIONS.
    ------------------------------------------------

 NO OUTPUT CONTROL FOR STRESS PERIOD   42   TIME STEP   22
 
 SOLVING FOR HEAD 
                                                   Max.-Head-Change                         Max.-Flux-Residual
  Residual-Control   Outer-Iter.   Inner-Iter.     Column Row Layer    Maximum-Head-Change  Column Row Layer    Maximum-Flux-Residual          L2-NORM 
          0                 1           2             5    8     1       0.2689780843E+00       5    8    1         0.1478201736E+02      0.3230317216E+02
          0                 2           2             4    7     1      -0.1871207625E+01       5    8    1        -0.1014781398E+03      0.2474452876E+03
          0                 3           2             4    7     1       0.1274042628E+00       5    8    1         0.7101718825E+01      0.1733474227E+02
          0                 4           2             4    7     1      -0.5069621335E-02       5    8    1        -0.2903882216E+00      0.7101336358E+00
          0                 5           1             4    7     1       0.6251048761E-04       5    8    1         0.3674869146E-02      0.9203460052E-02

    ------------------------------------------------
       NWT REQUIRED            5 OUTER ITERATIONS 
       AND A TOTAL OF          9 INNER ITERATIONS.
    ------------------------------------------------

 NO OUTPUT CONTROL FOR STRESS PERIOD   42   TIME STEP   23
 
 SOLVING FOR HEAD 
                                                   Max.-Head-Change                         Max.-Flux-Residual
  Residual-Control   Outer-Iter.   Inner-Iter.     Column Row Layer    Maximum-Head-Change  Column Row Layer    Maximum-Flux-Residual          L2-NORM 
          0                 1           2             5    8     1       0.3083259241E+00       5    8    1         0.1694245607E+02      0.3705156845E+02
          0                 2           2             4    7     1      -0.1872627532E+01       5    8    1        -0.1016941642E+03      0.2478192855E+03
          0                 3           2             4    7     1       0.1275011523E+00       5    8    1         0.7116925966E+01      0.1736105537E+02
          0                 4           2             4    7     1      -0.5073475640E-02       5    8    1        -0.2910186430E+00      0.7112119101E+00
          0                 5           1             4    7     1       0.6255801449E-04       5    8    1         0.3683433335E-02      0.9214656359E-02

    ------------------------------------------------
       NWT REQUIRED            5 OUTER ITERATIONS 
       AND A TOTAL OF          9 INNER ITERATIONS.
    ------------------------------------------------

 NO OUTPUT CONTROL FOR STRESS PERIOD   42   TIME STEP   24
 
 SOLVING FOR HEAD 
                                                   Max.-Head-Change                         Max.-Flux-Residual
  Residual-Control   Outer-Iter.   Inner-Iter.     Column Row Layer    Maximum-Head-Change  Column Row Layer    Maximum-Flux-Residual          L2-NORM 
          0                 1           2             5    8     1       0.3456014128E+00       5    8    1         0.1898700545E+02      0.4158648438E+02
          0                 2           2             4    7     1      -0.1873870868E+01       5    8    1        -0.1018985978E+03      0.2481809047E+03
          0                 3           2             4    7     1       0.1275860459E+00       5    8    1         0.7131315123E+01      0.1738651194E+02
          0                 4           2             4    7     1      -0.5076852493E-02       5    8    1        -0.2916148688E+00      0.7122579065E+00
          0                 5           1             4    7     1       0.6259965444E-04       5    8    1         0.3691514075E-02      0.9226073902E-02

    ------------------------------------------------
       NWT REQUIRED            5 OUTER ITERATIONS 
       AND A TOTAL OF          9 INNER ITERATIONS.
    ------------------------------------------------

 NO OUTPUT CONTROL FOR STRESS PERIOD   42   TIME STEP   25
 
 SOLVING FOR HEAD 
                                                   Max.-Head-Change                         Max.-Flux-Residual
  Residual-Control   Outer-Iter.   Inner-Iter.     Column Row Layer    Maximum-Head-Change  Column Row Layer    Maximum-Flux-Residual          L2-NORM 
          0                 1           2             5    8     1       0.3809391186E+00       5    8    1         0.2092364124E+02      0.4592165829E+02
          0                 2           2             4    7     1      -0.1875231998E+01       5    8    1        -0.1020922387E+03      0.2485306278E+03
          0                 3           2             4    7     1       0.1276789236E+00       5    8    1         0.7144944904E+01      0.1741114689E+02
          0                 4           2             4    7     1      -0.5080547219E-02       5    8    1        -0.2921796332E+00      0.7132768744E+00
          0                 5           1             4    7     1       0.6264521390E-04       5    8    1         0.3699168762E-02      0.9238494749E-02

    ------------------------------------------------
       NWT REQUIRED            5 OUTER ITERATIONS 
       AND A TOTAL OF          9 INNER ITERATIONS.
    ------------------------------------------------

 NO OUTPUT CONTROL FOR STRESS PERIOD   42   TIME STEP   26
 
 SOLVING FOR HEAD 
                                                   Max.-Head-Change                         Max.-Flux-Residual
  Residual-Control   Outer-Iter.   Inner-Iter.     Column Row Layer    Maximum-Head-Change  Column Row Layer    Maximum-Flux-Residual          L2-NORM 
          0                 1           2             5    8     1       0.4144696210E+00       5    8    1         0.2275961445E+02      0.5006742284E+02
          0                 2           2             4    7     1      -0.1876622413E+01       5    8    1        -0.1022758121E+03      0.2488689515E+03
          0                 3           2             4    7     1       0.1277737792E+00       5    8    1         0.7157865385E+01      0.1743498512E+02
          0                 4           2             4    7     1      -0.5084320725E-02       5    8    1        -0.2927149076E+00      0.7142565608E+00
          0                 5           1             4    7     1       0.6269174441E-04       5    8    1         0.3706417162E-02      0.9249614594E-02

    ------------------------------------------------
       NWT REQUIRED            5 OUTER ITERATIONS 
       AND A TOTAL OF          9 INNER ITERATIONS.
    ------------------------------------------------

 NO OUTPUT CONTROL FOR STRESS PERIOD   42   TIME STEP   27
 
 SOLVING FOR HEAD 
                                                   Max.-Head-Change                         Max.-Flux-Residual
  Residual-Control   Outer-Iter.   Inner-Iter.     Column Row Layer    Maximum-Head-Change  Column Row Layer    Maximum-Flux-Residual          L2-NORM 
          0                 1           2             5    8     1       0.4463125246E+00       5    8    1         0.2450165238E+02      0.5403392230E+02
          0                 2           2             4    7     1      -0.1878037939E+01       5    8    1        -0.1024499911E+03      0.2491963347E+03
          0                 3           2             4    7     1       0.1278703293E+00       5    8    1         0.7170123961E+01      0.1745806377E+02
          0                 4           2             4    7     1      -0.5088161732E-02       5    8    1        -0.2932226628E+00      0.7152110958E+00
          0                 5           1             4    7     1       0.6273910742E-04       5    8    1         0.3713286450E-02      0.9261349970E-02

    ------------------------------------------------
       NWT REQUIRED            5 OUTER ITERATIONS 
       AND A TOTAL OF          9 INNER ITERATIONS.
    ------------------------------------------------

 NO OUTPUT CONTROL FOR STRESS PERIOD   42   TIME STEP   28
 
 SOLVING FOR HEAD 
                                                   Max.-Head-Change                         Max.-Flux-Residual
  Residual-Control   Outer-Iter.   Inner-Iter.     Column Row Layer    Maximum-Head-Change  Column Row Layer    Maximum-Flux-Residual          L2-NORM 
          0                 1           2             5    8     1       0.4765780077E+00       5    8    1         0.2615594944E+02      0.5783231974E+02
          0                 2           2             4    7     1      -0.1879474711E+01       5    8    1        -0.1026153951E+03      0.2495132291E+03
          0                 3           2             4    7     1       0.1279683115E+00       5    8    1         0.7181764284E+01      0.1748040509E+02
          0                 4           2             4    7     1      -0.5092059840E-02       5    8    1        -0.2937047147E+00      0.7161360975E+00
          0                 5           1             4    7     1       0.6278717377E-04       5    8    1         0.3719801734E-02      0.9273180792E-02

    ------------------------------------------------
       NWT REQUIRED            5 OUTER ITERATIONS 
       AND A TOTAL OF          9 INNER ITERATIONS.
    ------------------------------------------------

 NO OUTPUT CONTROL FOR STRESS PERIOD   42   TIME STEP   29
 
 SOLVING FOR HEAD 
                                                   Max.-Head-Change                         Max.-Flux-Residual
  Residual-Control   Outer-Iter.   Inner-Iter.     Column Row Layer    Maximum-Head-Change  Column Row Layer    Maximum-Flux-Residual          L2-NORM 
          0                 1           2             5    8     1       0.5053681711E+00       5    8    1         0.2772824260E+02      0.6147226463E+02
          0                 2           2             4    7     1      -0.1880929161E+01       5    8    1        -0.1027725983E+03      0.2498200637E+03
          0                 3           2             4    7     1       0.1280674838E+00       5    8    1         0.7192826781E+01      0.1750203712E+02
          0                 4           2             4    7     1      -0.5096005375E-02       5    8    1        -0.2941627450E+00      0.7170323900E+00
          0                 5           1             4    7     1       0.6283582473E-04       5    8    1         0.3725986212E-02      0.9284839369E-02

    ------------------------------------------------
       NWT REQUIRED            5 OUTER ITERATIONS 
       AND A TOTAL OF          9 INNER ITERATIONS.
    ------------------------------------------------

 NO OUTPUT CONTROL FOR STRESS PERIOD   42   TIME STEP   30



 STREAM LISTING     PERIOD     42   STEP       30

 LAYER ROW COL. STREAM  RCH.  FLOW INTO     FLOW TO   FLOW OUT OF   OVRLND.     DIRECT     STREAM       STREAM     STREAM     STREAM   STREAMBED  STREAMBED
                SEG.NO.  NO.  STRM. RCH.    AQUIFER    STRM. RCH.    RUNOFF     PRECIP       ET          HEAD       DEPTH      WIDTH   CONDCTNC.   GRADIENT

   1    1    1     1     1    2.3624E+01  2.3872E-01   2.3386E+01  0.000E+00  0.000E+00  0.000E+00  1.09421E+03  1.157E+00  1.276E+01  5.742E-02  1.386E+00
   1    2    2     1     2    2.3386E+01  3.6908E-01   2.3016E+01  0.000E+00  0.000E+00  0.000E+00  1.08921E+03  1.153E+00  1.270E+01  8.888E-02  1.384E+00
   1    3    3     1     3    2.3016E+01  3.1417E-01   2.2702E+01  0.000E+00  0.000E+00  0.000E+00  1.08357E+03  1.147E+00  1.263E+01  7.575E-02  1.382E+00
   1    3    4     1     4    2.2702E+01  2.8881E-01   2.2414E+01  0.000E+00  0.000E+00  0.000E+00  1.07855E+03  1.143E+00  1.256E+01  6.972E-02  1.381E+00
   1    4    5     2     1    2.0414E+01  3.1702E-01   2.0096E+01  0.000E+00  0.000E+00  0.000E+00  1.07300E+03  1.064E+00  1.200E+01  7.800E-02  1.355E+00
   1    5    6     2     2    2.0096E+01  2.4333E-01   1.9853E+01  0.000E+00  0.000E+00  0.000E+00  1.06756E+03  1.055E+00  1.200E+01  6.000E-02  1.352E+00
   1    6    6     2     3    1.9853E+01  2.4286E-01   1.9610E+01  0.000E+00  0.000E+00  0.000E+00  1.06284E+03  1.048E+00  1.200E+01  6.000E-02  1.349E+00
   1    7    6     2     4    1.9610E+01  2.4240E-01   1.9368E+01  0.000E+00  0.000E+00  0.000E+00  1.05812E+03  1.040E+00  1.200E+01  6.000E-02  1.347E+00
   1    8    6     2     5    1.9368E+01  2.4193E-01   1.9126E+01  0.000E+00  0.000E+00  0.000E+00  1.05339E+03  1.032E+00  1.200E+01  6.000E-02  1.344E+00
   1    3    5     3     1    2.0000E+00  2.8252E-01   1.7175E+00  0.000E+00  0.000E+00  0.000E+00  1.07555E+03  1.909E+00  9.636E+00  7.227E-02  1.955E+00
   1    3    6     3     2    1.7175E+00  2.4905E-01   1.4684E+00  0.000E+00  0.000E+00  0.000E+00  1.07264E+03  1.727E+00  8.909E+00  6.682E-02  1.864E+00
   1    3    7     3     3    1.4684E+00  1.9718E-01   1.2712E+00  0.000E+00  0.000E+00  0.000E+00  1.06987E+03  1.555E+00  8.218E+00  5.547E-02  1.777E+00
   1    4    8     3     4    1.2712E+00  2.2567E-01   1.0456E+00  0.000E+00  0.000E+00  0.000E+00  1.06682E+03  1.364E+00  7.455E+00  6.709E-02  1.682E+00
   1    5    8     3     5    1.0456E+00  1.5790E-01   8.8768E-01  0.000E+00  0.000E+00  0.000E+00  1.06362E+03  1.164E+00  6.655E+00  4.991E-02  1.582E+00
   1    6    8     3     6    8.8768E-01  5.5980E-02   8.3170E-01  0.000E+00  0.000E+00  0.000E+00  1.06158E+03  1.036E+00  6.145E+00  1.844E-02  1.518E+00
   1    5   10     4     1    1.0000E+01  9.0919E-02   9.9091E+00  0.000E+00  0.000E+00  0.000E+00  1.07836E+03  6.368E-01  1.000E+01  2.500E-02  1.212E+00
   1    5    9     4     2    9.9091E+00  1.8158E-01   9.7275E+00  0.000E+00  0.000E+00  0.000E+00  1.07154E+03  6.315E-01  1.000E+01  5.000E-02  1.211E+00
   1    6    8     4     3    9.7275E+00  1.2689E-01   9.6006E+00  0.000E+00  0.000E+00  0.000E+00  1.06381E+03  6.256E-01  1.000E+01  3.500E-02  1.209E+00
   1    6    8     5     1    1.0432E+01  2.2686E-01   1.0205E+01  0.000E+00  0.000E+00  0.000E+00  1.05868E+03  6.790E-01  1.542E+01  6.166E-02  1.226E+00
   1    7    7     5     2    1.0205E+01  2.7894E-01   9.9265E+00  0.000E+00  0.000E+00  0.000E+00  1.05417E+03  6.732E-01  1.519E+01  7.594E-02  1.224E+00
   1    8    7     5     3    9.9265E+00  1.9221E-01   9.7343E+00  0.000E+00  0.000E+00  0.000E+00  1.04992E+03  6.676E-01  1.497E+01  5.241E-02  1.223E+00
   1    8    6     5     4    9.7343E+00  1.3577E-01   9.5985E+00  0.000E+00  0.000E+00  0.000E+00  1.04691E+03  6.637E-01  1.482E+01  3.706E-02  1.221E+00
   1    9    6     6     1    9.5985E+00  2.2097E-01   9.3776E+00  0.000E+00  0.000E+00  0.000E+00  1.04341E+03  6.828E-01  1.200E+01  6.000E-02  1.228E+00
   1   10    7     6     2    9.3776E+00  2.2039E-01   9.1572E+00  0.000E+00  0.000E+00  0.000E+00  1.03885E+03  6.732E-01  1.200E+01  6.000E-02  1.224E+00
   1   11    7     6     3    9.1572E+00  2.1981E-01   8.9374E+00  0.000E+00  0.000E+00  0.000E+00  1.03430E+03  6.636E-01  1.200E+01  6.000E-02  1.221E+00
   1   12    7     6     4    8.9374E+00  2.1923E-01   8.7181E+00  0.000E+00  0.000E+00  0.000E+00  1.02974E+03  6.539E-01  1.200E+01  6.000E-02  1.218E+00
   1   13    7     6     5    8.7181E+00  7.0344E-03   8.7111E+00  0.000E+00  0.000E+00  0.000E+00  1.02656E+03  6.488E-01  1.200E+01  2.400E-02  9.770E-02
   1   14    9     7     1    1.5000E+02  1.4264E+00   1.4857E+02  0.000E+00  0.000E+00  0.000E+00  1.03987E+03  2.287E+00  5.529E+01  5.593E-01  8.501E-01
   1   13    8     7     2    1.4857E+02  2.1097E+00   1.4646E+02  0.000E+00  0.000E+00  0.000E+00  1.03478E+03  2.278E+00  5.525E+01  6.147E-01  1.144E+00
   1   13    7     7     3    1.4646E+02  1.9104E+00   1.4455E+02  0.000E+00  0.000E+00  0.000E+00  1.02969E+03  2.267E+00  5.520E+01  5.583E-01  1.141E+00
   1   13    6     8     1    1.5326E+02  1.2310E+00   1.5203E+02  0.000E+00  0.000E+00  0.000E+00  1.02471E+03  2.835E+00  4.111E+01  4.190E-01  9.794E-01
   1   13    5     8     2    1.5203E+02  4.6104E-01   1.5157E+02  0.000E+00  0.000E+00  0.000E+00  1.01845E+03  2.829E+00  4.103E+01  4.181E-01  3.676E-01
   1   13    4     8     3    1.5157E+02 -1.5309E+00   1.5310E+02  0.000E+00  0.000E+00  0.000E+00  1.01221E+03  2.833E+00  4.108E+01  4.186E+00 -1.219E-01
   1   13    3     8     4    1.5310E+02 -3.2435E+00   1.5635E+02  0.000E+00  0.000E+00  0.000E+00  1.00597E+03  2.850E+00  4.132E+01  4.211E+00 -2.568E-01
   1   13    2     8     5    1.5635E+02 -2.5925E+00   1.5894E+02  0.000E+00  0.000E+00  0.000E+00  9.99745E+02  2.870E+00  4.161E+01  4.240E+00 -2.038E-01
   1   13    1     8     6    1.5894E+02 -2.0709E+00   1.6101E+02  0.000E+00  0.000E+00  0.000E+00  9.94761E+02  2.886E+00  4.184E+01  2.558E+00 -2.698E-01
   1    8    6     9     1    1.9126E+01  0.0000E+00   1.9126E+01  0.000E+00  0.000E+00  0.000E+00  1.08209E+03  3.344E+00  4.000E+00  0.000E+00  2.115E+00
   1    8    5     9     2    1.9126E+01  0.0000E+00   1.9126E+01  0.000E+00  0.000E+00  0.000E+00  1.08159E+03  3.344E+00  4.000E+00  0.000E+00  2.115E+00





UNSATURATED ZONE PACKAGE VOLUMETRIC BUDGET FOR  TIME STEP    30 STRESS PERIOD   42
  ------------------------------------------------------------------------------



     CUMULATIVE VOLUMES      L**3       RATES FOR THIS TIME STEP      L**3/T
     ------------------                 ------------------------

           IN:                                      IN:
           ---                                      ---
        INFILTRATION = 10737511326.4048          INFILTRATION =         619.9739

          OUT:                                     OUT:
          ----                                     ----
              UZF ET =  1317607628.5999                UZF ET =           8.3175
        UZF RECHARGE =  8209236973.3513          UZF RECHARGE =       0.0000E+00

            IN - OUT =  1210666724.4537              IN - OUT =         611.6564

          STORAGE:                                 STORAGE:
          --------                                 --------
      STORAGE CHANGE =  1211958715.8309        STORAGE CHANGE =         611.6563

 PERCENT DISCREPANCY IS DIFFERENCE BETWEEN IN-OUT MINUS CHANGE IN STORAGE
 DIVIDED BY THE AVERAGE OF IN AND OUT TIMES 100

 PERCENT DISCREPANCY =          -0.00     PERCENT DISCREPANCY =           0.00






1
  VOLUMETRIC BUDGET FOR AGRICULTURAL FIELDS AT  END OF TIME STEP   30, STRESS PERIOD  42
  ------------------------------------------------------------------------------

     CUMULATIVE VOLUMES      L**3       RATES FOR THIS TIME STEP      L**3/T
     ------------------                 ------------------------

           IN:                                      IN:
           ---                                      ---
               AG WELLS  = 10163534848.0000                 AG WELLS  =         600.0000
      DIVERSION SEGMENTS =   482542944.0000        DIVERSION SEGMENTS =          19.1260
           GW IRRIGATION =           0.0000             GW IRRIGATION =           0.0000
           SW IRRIGATION =           0.0000             SW IRRIGATION =           0.0000
        SYSTEM LOSSES GW =           0.0000          SYSTEM LOSSES GW =           0.0000
        SYSTEM LOSSES SW =           0.0000          SYSTEM LOSSES SW =           0.0000

                TOTAL IN = 10646077440.0000                  TOTAL IN =         619.1260

          OUT:                                     OUT:
          ----                                     ----
               AG WELLS  =           0.0000                 AG WELLS  =           0.0000
      DIVERSION SEGMENTS =           0.0000        DIVERSION SEGMENTS =           0.0000
           GW IRRIGATION = 10163534848.0000             GW IRRIGATION =         600.0000
           SW IRRIGATION =   482551840.0000             SW IRRIGATION =          19.1264
        SYSTEM LOSSES GW =           0.0000          SYSTEM LOSSES GW =           0.0000
        SYSTEM LOSSES SW =           0.0000          SYSTEM LOSSES SW =           0.0000

               TOTAL OUT = 10646086656.0000                 TOTAL OUT =         619.1263

                IN - OUT =       -9216.0000                  IN - OUT =      -3.6621E-04

     PERCENT DISCREPANCY =          -0.00         PERCENT DISCREPANCY =          -0.00



1
  VOLUMETRIC BUDGET FOR ENTIRE MODEL AT END OF TIME STEP   30, STRESS PERIOD  42
  ------------------------------------------------------------------------------

     CUMULATIVE VOLUMES      L**3       RATES FOR THIS TIME STEP      L**3/T
     ------------------                 ------------------------

           IN:                                      IN:
           ---                                      ---
             STORAGE     =  9012221952.0000               STORAGE     =         598.4647
       CONSTANT HEAD     =           0.0000         CONSTANT HEAD     =           0.0000
     HEAD DEP BOUNDS     =    31241978.0000       HEAD DEP BOUNDS     =           0.2919
      STREAM LEAKAGE     =  1334345728.0000        STREAM LEAKAGE     =          12.9257
        UZF RECHARGE     =  8209236480.0000          UZF RECHARGE     =           0.0000
               GW ET     =           0.0000                 GW ET     =           0.0000
     SURFACE LEAKAGE     =           0.0000       SURFACE LEAKAGE     =           0.0000
           AG WELLS      =           0.0000             AG WELLS      =           0.0000

                TOTAL IN = 18587045888.0000                  TOTAL IN =         611.6824

          OUT:                                     OUT:
          ----                                     ----
             STORAGE     =  7385625600.0000               STORAGE     =           1.9565
       CONSTANT HEAD     =           0.0000         CONSTANT HEAD     =           0.0000
     HEAD DEP BOUNDS     =    31060114.0000       HEAD DEP BOUNDS     =           0.2877
      STREAM LEAKAGE     =  1006689344.0000        STREAM LEAKAGE     =           9.4378
        UZF RECHARGE     =           0.0000          UZF RECHARGE     =           0.0000
               GW ET     =           0.0000                 GW ET     =           0.0000
     SURFACE LEAKAGE     =           0.0000       SURFACE LEAKAGE     =           0.0000
           AG WELLS      = 10163534848.0000             AG WELLS      =         600.0000

               TOTAL OUT = 18586910720.0000                 TOTAL OUT =         611.6820

                IN - OUT =      135168.0000                  IN - OUT =       3.6621E-04

     PERCENT DISCREPANCY =           0.00         PERCENT DISCREPANCY =           0.00






         TIME SUMMARY AT END OF TIME STEP   30 IN STRESS PERIOD   42
                    SECONDS     MINUTES      HOURS       DAYS        YEARS
                    -----------------------------------------------------------
   TIME STEP LENGTH  87667.      1461.1      24.352      1.0147     2.77799E-03
 STRESS PERIOD TIME 2.63000E+06  43833.      730.56      30.440     8.33397E-02
         TOTAL TIME 1.07916E+08 1.79859E+06  29977.      1249.0      3.4196    
1
1
                            STRESS PERIOD NO.   43, LENGTH =   2630000.    
                            -----------------------------------------------

                              NUMBER OF TIME STEPS =    30

                               MULTIPLIER FOR DELT =     1.000

                            INITIAL TIME STEP SIZE =   87666.66    

 REUSING NON-PARAMETER GHB CELLS FROM LAST STRESS PERIOD

      2 GHB CELLS

 REUSING STREAM SEGMENT DATA FROM LAST STRESS PERIOD



            AREAL INFILTRATION RATE
 READING ON UNIT   19 WITH FORMAT: (FREE)              

            1           2           3           4           5           6           7           8           9          10
 ........................................................................................................................
   1   1.0000E-10  2.0000E-10   0.000       0.000       0.000       0.000       0.000       0.000       0.000       0.000    
   2   2.0000E-10  1.0000E-10  2.0000E-10   0.000       0.000      8.0000E-10  8.0000E-10  5.0000E-10   0.000       0.000    
   3    0.000      5.0000E-10  1.0000E-10  1.0000E-10  8.0000E-10  8.0000E-10  5.0000E-10  5.0000E-10   0.000       0.000    
   4   8.0000E-10  5.0000E-10  1.0000E-10  1.0000E-10  1.0000E-10  1.0000E-10  1.0000E-10  1.0000E-10  2.0000E-10   0.000    
   5   8.0000E-10  5.0000E-10  1.0000E-10  1.0000E-10  1.0000E-10  1.0000E-10  1.0000E-10  1.0000E-10  1.0000E-10  1.0000E-10
   6   8.0000E-10  5.0000E-10  5.0000E-10  2.0000E-10  2.0000E-10  1.0000E-10  1.0000E-10  1.0000E-10  1.0000E-10  5.0000E-10
   7   8.0000E-10  5.0000E-10  5.0000E-10  2.0000E-10  2.0000E-10  1.0000E-10  1.0000E-10  2.0000E-10  2.0000E-10   0.000    
   8    0.000      5.0000E-10  5.0000E-10  2.0000E-10  2.0000E-10  1.0000E-10  1.0000E-10  2.0000E-10  5.0000E-10   0.000    
   9    0.000      5.0000E-10  5.0000E-10  2.0000E-10  2.0000E-10  1.0000E-10  1.0000E-10  2.0000E-10  5.0000E-10   0.000    
  10    0.000      5.0000E-10  5.0000E-10  2.0000E-10  2.0000E-10  1.0000E-10  1.0000E-10  2.0000E-10  5.0000E-10  8.0000E-10
  11    0.000      1.0000E-10  1.0000E-10  1.0000E-10  1.0000E-10  1.0000E-10  1.0000E-10  2.0000E-10  5.0000E-10   0.000    
  12   1.0000E-10  1.0000E-10  1.0000E-10  1.0000E-10  1.0000E-10  1.0000E-10  1.0000E-10  1.0000E-10  2.0000E-10   0.000    
  13   1.0000E-10  1.0000E-10  2.0000E-10  2.0000E-10  2.0000E-10  2.0000E-10  2.0000E-10  1.0000E-10  1.0000E-10   0.000    
  14    0.000      2.0000E-10  5.0000E-10  5.0000E-10  5.0000E-10  5.0000E-10  5.0000E-10  2.0000E-10  1.0000E-10   0.000    
  15    0.000       0.000      8.0000E-10  8.0000E-10  8.0000E-10  8.0000E-10   0.000       0.000       0.000       0.000    

                  ET RATE =  1.500000E-07

 USING ET EXTINCTION DEPTH FROM PREVIOUS STRESS PERIOD. CURRENT PERIOD IS:      43

 USING EXTINCTION WATER CONTENT FROM PREVIOUS STRESS PERIOD. CURRENT PERIOD IS:      43

 USING AIR ENTRY PRESSURE FROM PREVIOUS STRESS PERIOD. CURRENT PERIOD IS:      43

 USING ROOT PRESSURE HEAD FROM PREVIOUS STRESS PERIOD. CURRENT PERIOD IS:      43

 USING ROOT ACTIVITY FROM PREVIOUS STRESS PERIOD. CURRENT PERIOD IS:      43

 PROCESSING AG STRESS PERIOD DATA

 READING AG STRESS PERIOD DATA

 READING IRRIGATION SEGMENT

 READING IRRIGATION WELL

 READING SUPPLEMENTAL WELL

 END PROCESSING AG STRESS PERIOD DATA OPTIONS
 
 SOLVING FOR HEAD 
                                                   Max.-Head-Change                         Max.-Flux-Residual
  Residual-Control   Outer-Iter.   Inner-Iter.     Column Row Layer    Maximum-Head-Change  Column Row Layer    Maximum-Flux-Residual          L2-NORM 
          0                 1           2             5    8     1       0.5327772888E+00       5    8    1         0.2922382703E+02      0.6496279754E+02
          0                 2           2             4    7     1      -0.1882397962E+01       5    8    1        -0.1029221301E+03      0.2501172484E+03
          0                 3           2             4    7     1       0.1281676206E+00       5    8    1         0.7203348769E+01      0.1752265839E+02
          0                 4           2             4    7     1      -0.5099989346E-02       5    8    1        -0.2945983027E+00      0.7178644696E+00
          0                 5           1             4    7     1       0.6288494995E-04       5    8    1         0.3731861059E-02      0.9291902119E-02

    ------------------------------------------------
       NWT REQUIRED            5 OUTER ITERATIONS 
       AND A TOTAL OF          9 INNER ITERATIONS.
    ------------------------------------------------

 NO OUTPUT CONTROL FOR STRESS PERIOD   43   TIME STEP    1
 
 SOLVING FOR HEAD 
                                                   Max.-Head-Change                         Max.-Flux-Residual
  Residual-Control   Outer-Iter.   Inner-Iter.     Column Row Layer    Maximum-Head-Change  Column Row Layer    Maximum-Flux-Residual          L2-NORM 
          0                 1           2             5    8     1       0.9577202848E+00       5    8    1         0.5262675985E+02      0.8060461754E+02
          0                 2           2             5    8     1       0.4648075294E+00       5    8    1         0.2576798364E+02      0.3004150300E+02
          0                 3           2             5    8     1       0.2673695673E+00       5    8    1         0.1472580098E+02      0.1476601640E+02
          0                 4           2             5    8     1       0.1537971853E+00       5    8    1         0.8477210569E+01      0.8477305424E+01
          0                 5           2             5    8     1       0.8846648263E-01       5    8    1         0.4876123815E+01      0.4876137104E+01
          0                 6           2             5    8     1       0.5088689595E-01       5    8    1         0.2804839462E+01      0.2804846075E+01
          0                 7           2             5    8     1       0.2927057951E-01       5    8    1         0.1613379371E+01      0.1613383191E+01
          0                 8           2             5    8     1       0.1683664769E-01       5    8    1         0.9280312110E+00      0.9280334047E+00
          0                 9           2             5    8     1       0.9684547190E-02       5    8    1         0.5338107454E+00      0.5338120059E+00
          0                10           1             5    8     1       0.5570608856E-02       5    8    1         0.3070515213E+00      0.3070522458E+00
                                                   Max.-Head-Change                         Max.-Flux-Residual
  Residual-Control   Outer-Iter.   Inner-Iter.     Column Row Layer    Maximum-Head-Change  Column Row Layer    Maximum-Flux-Residual          L2-NORM 
          0                11           1             5    8     1       0.3204245696E-02       5    8    1         0.1766179109E+00      0.1766183274E+00
          0                12           1             5    8     1       0.1843099741E-02       5    8    1         0.1015916406E+00      0.1015918800E+00
          0                13           1             5    8     1       0.1060160942E-02       5    8    1         0.5843607726E-01      0.5843621491E-01
          0                14           1             5    8     1       0.6098102561E-03       5    8    1         0.3361275031E-01      0.3361282945E-01
          0                15           1             5    8     1       0.3507661094E-03       5    8    1         0.1933423508E-01      0.1933428058E-01
          0                16           1             5    8     1       0.2017625299E-03       5    8    1         0.1112115546E-01      0.1112118162E-01
          0                17           1             5    8     1       0.1160548775E-03       5    8    1         0.6396947883E-02      0.6396962934E-02
          0                18           1             5    8     1       0.6675538042E-04       5    8    1         0.3679558427E-02      0.3679567087E-02

    ------------------------------------------------
       NWT REQUIRED           18 OUTER ITERATIONS 
       AND A TOTAL OF         27 INNER ITERATIONS.
    ------------------------------------------------

 NO OUTPUT CONTROL FOR STRESS PERIOD   43   TIME STEP    2
 
 SOLVING FOR HEAD 
                                                   Max.-Head-Change                         Max.-Flux-Residual
  Residual-Control   Outer-Iter.   Inner-Iter.     Column Row Layer    Maximum-Head-Change  Column Row Layer    Maximum-Flux-Residual          L2-NORM 
          0                 1           2             5    8     1       0.2281154377E+01       5    8    1         0.1254888796E+03      0.1387513468E+03
          0                 2           2             5    8     1       0.1311471193E+01       5    8    1         0.7233798969E+02      0.7257921680E+02
          0                 3           2             5    8     1       0.7538486342E+00       5    8    1         0.4156983089E+02      0.4157206991E+02
          0                 4           2             5    8     1       0.4332966403E+00       5    8    1         0.2389666049E+02      0.2389672076E+02
          0                 5           2             5    8     1       0.2490409237E+00       5    8    1         0.1373565961E+02      0.1373569410E+02
          0                 6           2             5    8     1       0.1431354342E+00       5    8    1         0.7894796124E+01      0.7894815741E+01
          0                 7           2             5    8     1       0.8226563398E-01       5    8    1         0.4537545170E+01      0.4537556374E+01
          0                 8           2             5    8     1       0.4728101349E-01       5    8    1         0.2607920197E+01      0.2607926616E+01
          0                 9           2             5    8     1       0.2717398954E-01       5    8    1         0.1498869454E+01      0.1498873135E+01
          0                10           2             5    8     1       0.1561777107E-01       5    8    1         0.8614520677E+00      0.8614541807E+00
                                                   Max.-Head-Change                         Max.-Flux-Residual
  Residual-Control   Outer-Iter.   Inner-Iter.     Column Row Layer    Maximum-Head-Change  Column Row Layer    Maximum-Flux-Residual          L2-NORM 
          0                11           2             5    8     1       0.8976026770E-02       5    8    1         0.4951048279E+00      0.4951060411E+00
          0                12           1             5    8     1       0.5158802513E-02       5    8    1         0.2845525472E+00      0.2845532439E+00
          0                13           1             5    8     1       0.2964923420E-02       5    8    1         0.1635412737E+00      0.1635416739E+00
          0                14           1             5    8     1       0.1704032807E-02       5    8    1         0.9399224742E-01      0.9399247729E-01
          0                15           1             5    8     1       0.9793599989E-03       5    8    1         0.5402024556E-01      0.5402037761E-01
          0                16           1             5    8     1       0.5628682298E-03       5    8    1         0.3104709673E-01      0.3104717259E-01
          0                17           1             5    8     1       0.3234976208E-03       5    8    1         0.1784371960E-01      0.1784376318E-01
          0                18           1             5    8     1       0.1859239909E-03       5    8    1         0.1025533281E-01      0.1025535785E-01
          0                19           1             5    8     1       0.1068562107E-03       5    8    1         0.5894054035E-02      0.5894068417E-02
          0                20           1             5    8     1       0.6141353602E-04       5    8    1         0.3387493406E-02      0.3387501668E-02

    ------------------------------------------------
       NWT REQUIRED           20 OUTER ITERATIONS 
       AND A TOTAL OF         31 INNER ITERATIONS.
    ------------------------------------------------

 NO OUTPUT CONTROL FOR STRESS PERIOD   43   TIME STEP    3
 
 SOLVING FOR HEAD 
     PET DIFF ERROR     6    4    0.2245498948E-08    0.1500000053E-06
     PET DIFF ERROR     6    5    0.2245498913E-08    0.1500000053E-06
     PET DIFF ERROR     7    4    0.2245498913E-08    0.1500000053E-06
     PET DIFF ERROR     7    5    0.2245498913E-08    0.1500000053E-06
     PET DIFF ERROR     8    4    0.2245499012E-08    0.1500000053E-06
     PET DIFF ERROR     8    5    0.2245498913E-08    0.1500000053E-06
                                                   Max.-Head-Change                         Max.-Flux-Residual
  Residual-Control   Outer-Iter.   Inner-Iter.     Column Row Layer    Maximum-Head-Change  Column Row Layer    Maximum-Flux-Residual          L2-NORM 
          0                 1           2             5    6     1       0.2166272594E+01       5    6    1         0.1181602244E+03      0.2121809604E+03
     PET DIFF ERROR     6    4    0.2245498948E-08    0.1500000053E-06
     PET DIFF ERROR     6    5    0.2245498913E-08    0.1500000053E-06
     PET DIFF ERROR     7    4    0.2245498913E-08    0.1500000053E-06
     PET DIFF ERROR     7    5    0.2245498913E-08    0.1500000053E-06
     PET DIFF ERROR     8    4    0.2245499012E-08    0.1500000053E-06
     PET DIFF ERROR     8    5    0.2245498913E-08    0.1500000053E-06
          0                 2           2             5    6     1       0.1261988978E+01       5    6    1         0.6880171848E+02      0.1234289488E+03
     PET DIFF ERROR     6    4    0.2245498948E-08    0.1500000053E-06
     PET DIFF ERROR     6    5    0.2245498913E-08    0.1500000053E-06
     PET DIFF ERROR     7    4    0.2245498913E-08    0.1500000053E-06
     PET DIFF ERROR     7    5    0.2245498913E-08    0.1500000053E-06
     PET DIFF ERROR     8    4    0.2245499012E-08    0.1500000053E-06
     PET DIFF ERROR     8    5    0.2245498913E-08    0.1500000053E-06
          0                 3           2             5    6     1       0.7354176461E+00       5    6    1         0.4008437404E+02      0.7241025581E+02
     PET DIFF ERROR     6    4    0.2245498948E-08    0.1500000053E-06
     PET DIFF ERROR     6    5    0.2245498913E-08    0.1500000053E-06
     PET DIFF ERROR     7    4    0.2245498913E-08    0.1500000053E-06
     PET DIFF ERROR     7    5    0.2245498913E-08    0.1500000053E-06
     PET DIFF ERROR     8    4    0.2245499012E-08    0.1500000053E-06
     PET DIFF ERROR     8    5    0.2245498913E-08    0.1500000053E-06
          0                 4           2             5    6     1       0.4200569589E+00       5    6    1         0.2288284393E+02      0.4262481192E+02
     PET DIFF ERROR     6    4    0.2245498948E-08    0.1500000053E-06
     PET DIFF ERROR     6    5    0.2245498913E-08    0.1500000053E-06
     PET DIFF ERROR     7    4    0.2245498913E-08    0.1500000053E-06
     PET DIFF ERROR     7    5    0.2245498913E-08    0.1500000053E-06
     PET DIFF ERROR     8    4    0.2245499012E-08    0.1500000053E-06
     PET DIFF ERROR     8    5    0.2245498913E-08    0.1500000053E-06
          0                 5           2             4    8     1       0.2481386705E+00       4    8    1         0.1325575305E+02      0.2485097343E+02
     PET DIFF ERROR     6    4    0.2245498948E-08    0.1500000053E-06
     PET DIFF ERROR     6    5    0.2245498913E-08    0.1500000053E-06
     PET DIFF ERROR     7    4    0.2245498913E-08    0.1500000053E-06
     PET DIFF ERROR     7    5    0.2245498913E-08    0.1500000053E-06
     PET DIFF ERROR     8    4    0.2245499012E-08    0.1500000053E-06
     PET DIFF ERROR     8    5    0.2245498913E-08    0.1500000053E-06
          0                 6           2             4    8     1       0.1480465296E+00       4    8    1         0.7909689846E+01      0.1473409617E+02
     PET DIFF ERROR     6    4    0.2245498948E-08    0.1500000053E-06
     PET DIFF ERROR     6    5    0.2245498913E-08    0.1500000053E-06
     PET DIFF ERROR     7    4    0.2245498913E-08    0.1500000053E-06
     PET DIFF ERROR     7    5    0.2245498913E-08    0.1500000053E-06
     PET DIFF ERROR     8    4    0.2245499012E-08    0.1500000053E-06
     PET DIFF ERROR     8    5    0.2245498913E-08    0.1500000053E-06
          0                 7           2             4    8     1       0.8831739727E-01       4    8    1         0.4719084346E+01      0.8673199930E+01
     PET DIFF ERROR     6    4    0.2245498948E-08    0.1500000053E-06
     PET DIFF ERROR     6    5    0.2245498913E-08    0.1500000053E-06
     PET DIFF ERROR     7    4    0.2245498913E-08    0.1500000053E-06
     PET DIFF ERROR     7    5    0.2245498913E-08    0.1500000053E-06
     PET DIFF ERROR     8    4    0.2245499012E-08    0.1500000053E-06
     PET DIFF ERROR     8    5    0.2245498913E-08    0.1500000053E-06
          0                 8           2             4    8     1       0.5267856453E-01       4    8    1         0.2815134917E+01      0.5072706326E+01
     PET DIFF ERROR     6    4    0.2245498948E-08    0.1500000053E-06
     PET DIFF ERROR     6    5    0.2245498913E-08    0.1500000053E-06
     PET DIFF ERROR     7    4    0.2245498913E-08    0.1500000053E-06
     PET DIFF ERROR     7    5    0.2245498913E-08    0.1500000053E-06
     PET DIFF ERROR     8    4    0.2245499012E-08    0.1500000053E-06
     PET DIFF ERROR     8    5    0.2245498913E-08    0.1500000053E-06
          0                 9           2             4    8     1       0.3141655520E-01       4    8    1         0.1679109362E+01      0.2970596967E+01
     PET DIFF ERROR     6    4    0.2245498948E-08    0.1500000053E-06
     PET DIFF ERROR     6    5    0.2245498913E-08    0.1500000053E-06
     PET DIFF ERROR     7    4    0.2245498913E-08    0.1500000053E-06
     PET DIFF ERROR     7    5    0.2245498913E-08    0.1500000053E-06
     PET DIFF ERROR     8    4    0.2245499012E-08    0.1500000053E-06
     PET DIFF ERROR     8    5    0.2245498913E-08    0.1500000053E-06
          0                10           2             4    8     1       0.1873347402E-01       4    8    1         0.1001371074E+01      0.1741453410E+01
     PET DIFF ERROR     6    4    0.2245498948E-08    0.1500000053E-06
     PET DIFF ERROR     6    5    0.2245498913E-08    0.1500000053E-06
     PET DIFF ERROR     7    4    0.2245498913E-08    0.1500000053E-06
     PET DIFF ERROR     7    5    0.2245498913E-08    0.1500000053E-06
     PET DIFF ERROR     8    4    0.2245499012E-08    0.1500000053E-06
     PET DIFF ERROR     8    5    0.2245498913E-08    0.1500000053E-06
                                                   Max.-Head-Change                         Max.-Flux-Residual
  Residual-Control   Outer-Iter.   Inner-Iter.     Column Row Layer    Maximum-Head-Change  Column Row Layer    Maximum-Flux-Residual          L2-NORM 
          0                11           2             4    8     1       0.1116893765E-01       4    8    1         0.5970982036E+00      0.1021827138E+01
     PET DIFF ERROR     6    4    0.2245498948E-08    0.1500000053E-06
     PET DIFF ERROR     6    5    0.2245498913E-08    0.1500000053E-06
     PET DIFF ERROR     7    4    0.2245498913E-08    0.1500000053E-06
     PET DIFF ERROR     7    5    0.2245498913E-08    0.1500000053E-06
     PET DIFF ERROR     8    4    0.2245499012E-08    0.1500000053E-06
     PET DIFF ERROR     8    5    0.2245498913E-08    0.1500000053E-06
          0                12           2             4    8     1       0.6657916076E-02       4    8    1         0.3559835770E+00      0.6000464555E+00
     PET DIFF ERROR     6    4    0.2245498948E-08    0.1500000053E-06
     PET DIFF ERROR     6    5    0.2245498913E-08    0.1500000053E-06
     PET DIFF ERROR     7    4    0.2245498913E-08    0.1500000053E-06
     PET DIFF ERROR     7    5    0.2245498913E-08    0.1500000053E-06
     PET DIFF ERROR     8    4    0.2245499012E-08    0.1500000053E-06
     PET DIFF ERROR     8    5    0.2245498913E-08    0.1500000053E-06
          0                13           2             4    8     1       0.3968233444E-02       4    8    1         0.2122007296E+00      0.3526046560E+00
     PET DIFF ERROR     6    4    0.2245498948E-08    0.1500000053E-06
     PET DIFF ERROR     6    5    0.2245498913E-08    0.1500000053E-06
     PET DIFF ERROR     7    4    0.2245498913E-08    0.1500000053E-06
     PET DIFF ERROR     7    5    0.2245498913E-08    0.1500000053E-06
     PET DIFF ERROR     8    4    0.2245499012E-08    0.1500000053E-06
     PET DIFF ERROR     8    5    0.2245498913E-08    0.1500000053E-06
          0                14           2             4    8     1       0.2364767603E-02       4    8    1         0.1264725065E+00      0.2073235863E+00
     PET DIFF ERROR     6    4    0.2245498948E-08    0.1500000053E-06
     PET DIFF ERROR     6    5    0.2245498913E-08    0.1500000053E-06
     PET DIFF ERROR     7    4    0.2245498913E-08    0.1500000053E-06
     PET DIFF ERROR     7    5    0.2245498913E-08    0.1500000053E-06
     PET DIFF ERROR     8    4    0.2245499012E-08    0.1500000053E-06
     PET DIFF ERROR     8    5    0.2245498913E-08    0.1500000053E-06
          0                15           2             4    8     1       0.1409004268E-02       4    8    1         0.7536638799E-01      0.1219650083E+00
     PET DIFF ERROR     6    4    0.2245498948E-08    0.1500000053E-06
     PET DIFF ERROR     6    5    0.2245498913E-08    0.1500000053E-06
     PET DIFF ERROR     7    4    0.2245498913E-08    0.1500000053E-06
     PET DIFF ERROR     7    5    0.2245498913E-08    0.1500000053E-06
     PET DIFF ERROR     8    4    0.2245499012E-08    0.1500000053E-06
     PET DIFF ERROR     8    5    0.2245498913E-08    0.1500000053E-06
          0                16           2             4    8     1       0.8394005328E-03       4    8    1         0.4490470914E-01      0.7178297591E-01
     PET DIFF ERROR     6    4    0.2245498948E-08    0.1500000053E-06
     PET DIFF ERROR     6    5    0.2245498913E-08    0.1500000053E-06
     PET DIFF ERROR     7    4    0.2245498913E-08    0.1500000053E-06
     PET DIFF ERROR     7    5    0.2245498913E-08    0.1500000053E-06
     PET DIFF ERROR     8    4    0.2245499012E-08    0.1500000053E-06
     PET DIFF ERROR     8    5    0.2245498913E-08    0.1500000053E-06
          0                17           2             4    8     1       0.4999884747E-03       4    8    1         0.2675095129E-01      0.4226546111E-01
     PET DIFF ERROR     6    4    0.2245498948E-08    0.1500000053E-06
     PET DIFF ERROR     6    5    0.2245498913E-08    0.1500000053E-06
     PET DIFF ERROR     7    4    0.2245498913E-08    0.1500000053E-06
     PET DIFF ERROR     7    5    0.2245498913E-08    0.1500000053E-06
     PET DIFF ERROR     8    4    0.2245499012E-08    0.1500000053E-06
     PET DIFF ERROR     8    5    0.2245498913E-08    0.1500000053E-06
          0                18           2             4    8     1       0.2977731173E-03       4    8    1         0.1593384165E-01      0.2489485641E-01
     PET DIFF ERROR     6    4    0.2245498948E-08    0.1500000053E-06
     PET DIFF ERROR     6    5    0.2245498913E-08    0.1500000053E-06
     PET DIFF ERROR     7    4    0.2245498913E-08    0.1500000053E-06
     PET DIFF ERROR     7    5    0.2245498913E-08    0.1500000053E-06
     PET DIFF ERROR     8    4    0.2245499012E-08    0.1500000053E-06
     PET DIFF ERROR     8    5    0.2245498913E-08    0.1500000053E-06
          0                19           2             4    8     1       0.1773155391E-03       4    8    1         0.9489353716E-02      0.1466825308E-01
     PET DIFF ERROR     6    4    0.2245498948E-08    0.1500000053E-06
     PET DIFF ERROR     6    5    0.2245498913E-08    0.1500000053E-06
     PET DIFF ERROR     7    4    0.2245498913E-08    0.1500000053E-06
     PET DIFF ERROR     7    5    0.2245498913E-08    0.1500000053E-06
     PET DIFF ERROR     8    4    0.2245499012E-08    0.1500000053E-06
     PET DIFF ERROR     8    5    0.2245498913E-08    0.1500000053E-06
          0                20           1             4    8     1       0.1055711636E-03       4    8    1         0.5650524251E-02      0.8645283204E-02
     PET DIFF ERROR     6    4    0.2245498948E-08    0.1500000053E-06
     PET DIFF ERROR     6    5    0.2245498913E-08    0.1500000053E-06
     PET DIFF ERROR     7    4    0.2245498913E-08    0.1500000053E-06
     PET DIFF ERROR     7    5    0.2245498913E-08    0.1500000053E-06
     PET DIFF ERROR     8    4    0.2245499012E-08    0.1500000053E-06
     PET DIFF ERROR     8    5    0.2245498913E-08    0.1500000053E-06
          0                21           1             4    8     1       0.6284660589E-04       4    8    1         0.3364169781E-02      0.5096844532E-02

    ------------------------------------------------
       NWT REQUIRED           21 OUTER ITERATIONS 
       AND A TOTAL OF         40 INNER ITERATIONS.
    ------------------------------------------------

 NO OUTPUT CONTROL FOR STRESS PERIOD   43   TIME STEP    4
     PET DIFF ERROR     6    4    0.2245498948E-08    0.1500000053E-06
     PET DIFF ERROR     6    5    0.2245498913E-08    0.1500000053E-06
     PET DIFF ERROR     7    4    0.2245498913E-08    0.1500000053E-06
     PET DIFF ERROR     7    5    0.2245498913E-08    0.1500000053E-06
     PET DIFF ERROR     8    4    0.2245499012E-08    0.1500000053E-06
     PET DIFF ERROR     8    5    0.2245498913E-08    0.1500000053E-06
 
 SOLVING FOR HEAD 
                                                   Max.-Head-Change                         Max.-Flux-Residual
  Residual-Control   Outer-Iter.   Inner-Iter.     Column Row Layer    Maximum-Head-Change  Column Row Layer    Maximum-Flux-Residual          L2-NORM 
          0                 1           2             5    7     1       0.2298771040E+01       5    7    1         0.1226079949E+03      0.2577975486E+03
          0                 2           2             5    7     1       0.1302608941E+01       5    7    1         0.6939835615E+02      0.1447350378E+03
          0                 3           2             5    7     1       0.7797624857E+00       5    7    1         0.4153834969E+02      0.8701620360E+02
          0                 4           2             5    7     1       0.4669811100E+00       5    7    1         0.2486698583E+02      0.5232899734E+02
          0                 5           2             5    7     1       0.2797819333E+00       5    7    1         0.1489339763E+02      0.3148237151E+02
          0                 6           2             5    7     1       0.1676937114E+00       5    7    1         0.8923665307E+01      0.1894740311E+02
          0                 7           2             5    7     1       0.1005502481E+00       5    7    1         0.5348935579E+01      0.1140724824E+02
          0                 8           2             5    7     1       0.6031300794E-01       5    7    1         0.3207442192E+01      0.6869907921E+01
          0                 9           2             5    7     1       0.3619032873E-01       5    7    1         0.1924022791E+01      0.4138569080E+01
          0                10           2             5    7     1       0.2172301866E-01       5    7    1         0.1154553094E+01      0.2493845998E+01
                                                   Max.-Head-Change                         Max.-Flux-Residual
  Residual-Control   Outer-Iter.   Inner-Iter.     Column Row Layer    Maximum-Head-Change  Column Row Layer    Maximum-Flux-Residual          L2-NORM 
          0                11           2             5    7     1       0.1304327392E-01       5    7    1         0.6930466655E+00      0.1503143840E+01
          0                12           2             5    7     1       0.7834023172E-02       5    7    1         0.4161488592E+00      0.9062224360E+00
          0                13           2             5    7     1       0.4706610163E-02       5    7    1         0.2499572213E+00      0.5464681012E+00
          0                14           2             5    7     1       0.2828462521E-02       5    7    1         0.1501781778E+00      0.3295971404E+00
          0                15           2             5    7     1       0.1700221372E-02       5    7    1         0.9025387997E-01      0.1988309648E+00
          0                16           2             4    8     1       0.1022789948E-02       5    7    1         0.5425464352E-01      0.1199666077E+00
          0                17           2             4    8     1       0.6158732709E-03       4    8    1         0.3264461078E-01      0.7239469630E-01
          0                18           2             4    8     1       0.3709245192E-03       4    8    1         0.1965756446E-01      0.4369359549E-01
          0                19           2             4    8     1       0.2234417864E-03       4    8    1         0.1183958595E-01      0.2637475954E-01
          0                20           2             4    8     1       0.1346243204E-03       4    8    1         0.7132262711E-02      0.1592261218E-01
          0                21           1             4    7     1       0.8212100214E-04       4    8    1         0.4297321049E-02      0.9613708250E-02

    ------------------------------------------------
       NWT REQUIRED           21 OUTER ITERATIONS 
       AND A TOTAL OF         41 INNER ITERATIONS.
    ------------------------------------------------

 NO OUTPUT CONTROL FOR STRESS PERIOD   43   TIME STEP    5
 
 SOLVING FOR HEAD 
                                                   Max.-Head-Change                         Max.-Flux-Residual
  Residual-Control   Outer-Iter.   Inner-Iter.     Column Row Layer    Maximum-Head-Change  Column Row Layer    Maximum-Flux-Residual          L2-NORM 
          0                 1           2             4    7     1       0.2378757705E+01       4    7    1         0.1244797791E+03      0.2613950886E+03
          0                 2           2             4    7     1       0.1453231062E+01       4    7    1         0.7608332137E+02      0.1568745284E+03
          0                 3           2             4    7     1       0.8861971751E+00       4    7    1         0.4647762574E+02      0.9290766321E+02
          0                 4           2             4    7     1       0.5387621756E+00       4    7    1         0.2833484155E+02      0.5412225090E+02
          0                 5           2             4    7     1       0.3267180080E+00       4    7    1         0.1721836533E+02      0.3193458907E+02
          0                 6           2             4    7     1       0.1977606413E+00       4    7    1         0.1043815061E+02      0.1898774858E+02
          0                 7           2             4    7     1       0.1195346675E+00       4    7    1         0.6316590186E+01      0.1123959989E+02
          0                 8           2             4    7     1       0.7216874016E-01       4    7    1         0.3817284127E+01      0.6484190132E+01
          0                 9           2             4    7     1       0.4350662448E-01       4    7    1         0.2304313290E+01      0.3756166464E+01
          0                10           2             4    7     1       0.2613343726E-01       4    7    1         0.1388839063E+01      0.2108033916E+01
                                                   Max.-Head-Change                         Max.-Flux-Residual
  Residual-Control   Outer-Iter.   Inner-Iter.     Column Row Layer    Maximum-Head-Change  Column Row Layer    Maximum-Flux-Residual          L2-NORM 
          0                11           2             4    7     1       0.1565034753E-01       4    7    1         0.8337753313E+00      0.1209462649E+01
          0                12           2             4    7     1       0.9351671385E-02       4    7    1         0.4991122562E+00      0.7038745358E+00
          0                13           2             4    7     1       0.5578867959E-02       4    7    1         0.2981484109E+00      0.4132021671E+00
          0                14           2             4    7     1       0.3324140296E-02       4    7    1         0.1778249397E+00      0.2438005761E+00
          0                15           2             4    7     1       0.1978902988E-02       4    7    1         0.1059386294E+00      0.1442670925E+00
          0                16           2             4    7     1       0.1177284353E-02       4    7    1         0.6305889794E-01      0.8550835570E-01
          0                17           2             4    7     1       0.7000414763E-03       4    7    1         0.3751144001E-01      0.5072745845E-01
          0                18           2             4    7     1       0.4161083928E-03       4    7    1         0.2230369020E-01      0.3010877059E-01
          0                19           2             4    7     1       0.2472693115E-03       4    7    1         0.1325676373E-01      0.1787553353E-01
          0                20           2             4    7     1       0.1469079711E-03       4    7    1         0.7877436888E-02      0.1061417353E-01
          0                21           1             4    7     1       0.8726790636E-04       4    7    1         0.4680022172E-02      0.6302959669E-02

    ------------------------------------------------
       NWT REQUIRED           21 OUTER ITERATIONS 
       AND A TOTAL OF         41 INNER ITERATIONS.
    ------------------------------------------------

 NO OUTPUT CONTROL FOR STRESS PERIOD   43   TIME STEP    6
 
 SOLVING FOR HEAD 
                                                   Max.-Head-Change                         Max.-Flux-Residual
  Residual-Control   Outer-Iter.   Inner-Iter.     Column Row Layer    Maximum-Head-Change  Column Row Layer    Maximum-Flux-Residual          L2-NORM 
          0                 1           2             4    6     1       0.2009452960E+01       4    6    1         0.1078879036E+03      0.1559429370E+03
          0                 2           2             5    8     1      -0.1694749057E+01       5    8    1        -0.9344654406E+02      0.1959559816E+03
          0                 3           2             5    7     1      -0.4834614579E+00       5    7    1        -0.2636790033E+02      0.5924475816E+02
          0                 4           2             4    7     1      -0.2232487910E+00       4    7    1        -0.1237100952E+02      0.1737086966E+02
          0                 5           2             4    7     1      -0.1045958151E+00       4    7    1        -0.5769846729E+01      0.7958600750E+01
          0                 6           2             4    7     1      -0.4900393145E-01       4    7    1        -0.2704165859E+01      0.3727362321E+01
          0                 7           2             4    7     1      -0.2295814706E-01       4    7    1        -0.1266881428E+01      0.1745477115E+01
          0                 8           2             4    7     1      -0.1075554201E-01       4    7    1        -0.5935159544E+00      0.8173825005E+00
          0                 9           2             4    7     1      -0.5038688500E-02       4    7    1        -0.2780471015E+00      0.3827648178E+00
          0                10           2             4    7     1      -0.2360438246E-02       4    7    1        -0.1302549250E+00      0.1792397158E+00
                                                   Max.-Head-Change                         Max.-Flux-Residual
  Residual-Control   Outer-Iter.   Inner-Iter.     Column Row Layer    Maximum-Head-Change  Column Row Layer    Maximum-Flux-Residual          L2-NORM 
          0                11           2             4    7     1      -0.1105752355E-02       4    7    1        -0.6101827107E-01      0.8393285725E-01
          0                12           2             4    7     1      -0.5179804513E-03       4    7    1        -0.2858352399E-01      0.3930296189E-01
          0                13           2             4    7     1      -0.2426382679E-03       4    7    1        -0.1338942528E-01      0.1840407750E-01
          0                14           2             4    7     1      -0.1136569018E-03       4    7    1        -0.6271891756E-02      0.8617837836E-02
          0                15           1             4    7     1      -0.5323816399E-04       4    7    1        -0.2937824053E-02      0.4035320794E-02

    ------------------------------------------------
       NWT REQUIRED           15 OUTER ITERATIONS 
       AND A TOTAL OF         29 INNER ITERATIONS.
    ------------------------------------------------

 NO OUTPUT CONTROL FOR STRESS PERIOD   43   TIME STEP    7
 
 SOLVING FOR HEAD 
                                                   Max.-Head-Change                         Max.-Flux-Residual
  Residual-Control   Outer-Iter.   Inner-Iter.     Column Row Layer    Maximum-Head-Change  Column Row Layer    Maximum-Flux-Residual          L2-NORM 
          0                 1           2             4    7     1       0.6392826010E+00       4    7    1         0.3422294493E+02      0.4660660206E+02
          0                 2           2             4    7     1       0.2011001891E+00       4    7    1         0.1096221124E+02      0.1712472605E+02
          0                 3           2             4    7     1       0.9099763339E-01       4    7    1         0.4884558458E+01      0.6309576221E+01
          0                 4           2             4    7     1       0.4117811799E-01       4    7    1         0.2215171605E+01      0.2844625108E+01
          0                 5           2             4    7     1       0.1863501913E-01       4    7    1         0.1002220441E+01      0.1289243666E+01
          0                 6           2             4    7     1       0.8433716059E-02       4    7    1         0.4535646357E+00      0.5844663601E+00
          0                 7           2             4    7     1       0.3817096504E-02       4    7    1         0.2052732615E+00      0.2649613696E+00
          0                 8           2             4    7     1       0.1727712949E-02       4    7    1         0.9290757998E-01      0.1201184601E+00
          0                 9           2             4    7     1       0.7820483289E-03       4    7    1         0.4205270936E-01      0.5445532907E-01
          0                10           2             4    7     1       0.3540123749E-03       4    7    1         0.1903532234E-01      0.2468733851E-01
                                                   Max.-Head-Change                         Max.-Flux-Residual
  Residual-Control   Outer-Iter.   Inner-Iter.     Column Row Layer    Maximum-Head-Change  Column Row Layer    Maximum-Flux-Residual          L2-NORM 
          0                11           2             4    7     1       0.1602601158E-03       4    7    1         0.8616863333E-02      0.1119209038E-01
          0                12           1             4    7     1       0.7255276182E-04       4    7    1         0.3900858588E-02      0.5074006499E-02

    ------------------------------------------------
       NWT REQUIRED           12 OUTER ITERATIONS 
       AND A TOTAL OF         23 INNER ITERATIONS.
    ------------------------------------------------

 NO OUTPUT CONTROL FOR STRESS PERIOD   43   TIME STEP    8
 
 SOLVING FOR HEAD 
                                                   Max.-Head-Change                         Max.-Flux-Residual
  Residual-Control   Outer-Iter.   Inner-Iter.     Column Row Layer    Maximum-Head-Change  Column Row Layer    Maximum-Flux-Residual          L2-NORM 
          0                 1           2             4    7     1       0.6072735487E+00       4    7    1         0.3222635979E+02      0.4900362873E+02
          0                 2           2             4    7     1       0.2795392855E+00       4    7    1         0.1482443230E+02      0.2224640119E+02
          0                 3           2             4    7     1       0.1286644434E+00       4    7    1         0.6824996260E+01      0.1023031483E+02
          0                 4           2             4    7     1       0.5921667669E-01       4    7    1         0.3141255867E+01      0.4707595631E+01
          0                 5           2             4    7     1       0.2725268085E-01       4    7    1         0.1445728221E+01      0.2167323096E+01
          0                 6           2             4    7     1       0.1254189174E-01       4    7    1         0.6653480789E+00      0.9981901382E+00
          0                 7           2             4    7     1       0.5771828101E-02       4    7    1         0.3061972504E+00      0.4598920942E+00
          0                 8           2             4    7     1       0.2656239781E-02       4    7    1         0.1409131024E+00      0.2119516146E+00
          0                 9           2             4    7     1       0.1222449539E-02       4    7    1         0.6484943219E-01      0.9771087505E-01
          0                10           2             4    7     1       0.5626131666E-03       4    7    1         0.2984501554E-01      0.4505707349E-01
                                                   Max.-Head-Change                         Max.-Flux-Residual
  Residual-Control   Outer-Iter.   Inner-Iter.     Column Row Layer    Maximum-Head-Change  Column Row Layer    Maximum-Flux-Residual          L2-NORM 
          0                11           2             4    7     1       0.2589458673E-03       4    7    1         0.1373579096E-01      0.2078196933E-01
          0                12           1             4    7     1       0.1191879866E-03       4    7    1         0.6322029496E-02      0.9587488686E-02
          0                13           1             4    7     1       0.5486357587E-04       4    7    1         0.2909943172E-02      0.4423939948E-02

    ------------------------------------------------
       NWT REQUIRED           13 OUTER ITERATIONS 
       AND A TOTAL OF         24 INNER ITERATIONS.
    ------------------------------------------------

 NO OUTPUT CONTROL FOR STRESS PERIOD   43   TIME STEP    9
 
 SOLVING FOR HEAD 
     PET DIFF ERROR     6    4    0.2245498963E-08    0.1500000053E-06
     PET DIFF ERROR     6    5    0.2245498913E-08    0.1500000053E-06
     PET DIFF ERROR     7    4    0.2245498913E-08    0.1500000053E-06
     PET DIFF ERROR     7    5    0.2245498899E-08    0.1500000053E-06
     PET DIFF ERROR     8    4    0.2245498913E-08    0.1500000053E-06
     PET DIFF ERROR     8    5    0.2245498948E-08    0.1500000053E-06
                                                   Max.-Head-Change                         Max.-Flux-Residual
  Residual-Control   Outer-Iter.   Inner-Iter.     Column Row Layer    Maximum-Head-Change  Column Row Layer    Maximum-Flux-Residual          L2-NORM 
          0                 1           2             4    7     1       0.5867489029E+00       4    7    1         0.3086550901E+02      0.6113901747E+02
     PET DIFF ERROR     6    4    0.2245498963E-08    0.1500000053E-06
     PET DIFF ERROR     6    5    0.2245498913E-08    0.1500000053E-06
     PET DIFF ERROR     7    4    0.2245498913E-08    0.1500000053E-06
     PET DIFF ERROR     7    5    0.2245498899E-08    0.1500000053E-06
     PET DIFF ERROR     8    4    0.2245498913E-08    0.1500000053E-06
     PET DIFF ERROR     8    5    0.2245498948E-08    0.1500000053E-06
          0                 2           2             4    7     1       0.2729321994E+00       4    7    1         0.1435069169E+02      0.2808460160E+02
     PET DIFF ERROR     6    4    0.2245498963E-08    0.1500000053E-06
     PET DIFF ERROR     6    5    0.2245498913E-08    0.1500000053E-06
     PET DIFF ERROR     7    4    0.2245498913E-08    0.1500000053E-06
     PET DIFF ERROR     7    5    0.2245498899E-08    0.1500000053E-06
     PET DIFF ERROR     8    4    0.2245498913E-08    0.1500000053E-06
     PET DIFF ERROR     8    5    0.2245498948E-08    0.1500000053E-06
          0                 3           2             4    7     1       0.1269222793E+00       4    7    1         0.6676053111E+01      0.1298430714E+02
     PET DIFF ERROR     6    4    0.2245498963E-08    0.1500000053E-06
     PET DIFF ERROR     6    5    0.2245498913E-08    0.1500000053E-06
     PET DIFF ERROR     7    4    0.2245498913E-08    0.1500000053E-06
     PET DIFF ERROR     7    5    0.2245498899E-08    0.1500000053E-06
     PET DIFF ERROR     8    4    0.2245498913E-08    0.1500000053E-06
     PET DIFF ERROR     8    5    0.2245498948E-08    0.1500000053E-06
          0                 4           2             4    7     1       0.5900776375E-01       4    7    1         0.3104380135E+01      0.6003662202E+01
     PET DIFF ERROR     6    4    0.2245498963E-08    0.1500000053E-06
     PET DIFF ERROR     6    5    0.2245498913E-08    0.1500000053E-06
     PET DIFF ERROR     7    4    0.2245498913E-08    0.1500000053E-06
     PET DIFF ERROR     7    5    0.2245498899E-08    0.1500000053E-06
     PET DIFF ERROR     8    4    0.2245498913E-08    0.1500000053E-06
     PET DIFF ERROR     8    5    0.2245498948E-08    0.1500000053E-06
          0                 5           2             4    7     1       0.2742676275E-01       4    7    1         0.1443208290E+01      0.2776137261E+01
     PET DIFF ERROR     6    4    0.2245498963E-08    0.1500000053E-06
     PET DIFF ERROR     6    5    0.2245498913E-08    0.1500000053E-06
     PET DIFF ERROR     7    4    0.2245498913E-08    0.1500000053E-06
     PET DIFF ERROR     7    5    0.2245498899E-08    0.1500000053E-06
     PET DIFF ERROR     8    4    0.2245498913E-08    0.1500000053E-06
     PET DIFF ERROR     8    5    0.2245498948E-08    0.1500000053E-06
          0                 6           2             4    7     1       0.1274499289E-01       4    7    1         0.6707738250E+00      0.1283736506E+01
     PET DIFF ERROR     6    4    0.2245498963E-08    0.1500000053E-06
     PET DIFF ERROR     6    5    0.2245498913E-08    0.1500000053E-06
     PET DIFF ERROR     7    4    0.2245498913E-08    0.1500000053E-06
     PET DIFF ERROR     7    5    0.2245498899E-08    0.1500000053E-06
     PET DIFF ERROR     8    4    0.2245498913E-08    0.1500000053E-06
     PET DIFF ERROR     8    5    0.2245498948E-08    0.1500000053E-06
          0                 7           2             4    7     1       0.5921196680E-02       4    7    1         0.3116906784E+00      0.5936385974E+00
     PET DIFF ERROR     6    4    0.2245498963E-08    0.1500000053E-06
     PET DIFF ERROR     6    5    0.2245498913E-08    0.1500000053E-06
     PET DIFF ERROR     7    4    0.2245498913E-08    0.1500000053E-06
     PET DIFF ERROR     7    5    0.2245498899E-08    0.1500000053E-06
     PET DIFF ERROR     8    4    0.2245498913E-08    0.1500000053E-06
     PET DIFF ERROR     8    5    0.2245498948E-08    0.1500000053E-06
          0                 8           2             4    7     1       0.2750357127E-02       4    7    1         0.1448028506E+00      0.2745228513E+00
     PET DIFF ERROR     6    4    0.2245498963E-08    0.1500000053E-06
     PET DIFF ERROR     6    5    0.2245498913E-08    0.1500000053E-06
     PET DIFF ERROR     7    4    0.2245498913E-08    0.1500000053E-06
     PET DIFF ERROR     7    5    0.2245498899E-08    0.1500000053E-06
     PET DIFF ERROR     8    4    0.2245498913E-08    0.1500000053E-06
     PET DIFF ERROR     8    5    0.2245498948E-08    0.1500000053E-06
          0                 9           2             4    7     1       0.1277270820E-02       4    7    1         0.6725753124E-01      0.1269533669E+00
     PET DIFF ERROR     6    4    0.2245498963E-08    0.1500000053E-06
     PET DIFF ERROR     6    5    0.2245498913E-08    0.1500000053E-06
     PET DIFF ERROR     7    4    0.2245498913E-08    0.1500000053E-06
     PET DIFF ERROR     7    5    0.2245498899E-08    0.1500000053E-06
     PET DIFF ERROR     8    4    0.2245498913E-08    0.1500000053E-06
     PET DIFF ERROR     8    5    0.2245498948E-08    0.1500000053E-06
          0                10           2             4    7     1       0.5930557393E-03       4    7    1         0.3123343897E-01      0.5871087208E-01
     PET DIFF ERROR     6    4    0.2245498963E-08    0.1500000053E-06
     PET DIFF ERROR     6    5    0.2245498913E-08    0.1500000053E-06
     PET DIFF ERROR     7    4    0.2245498913E-08    0.1500000053E-06
     PET DIFF ERROR     7    5    0.2245498899E-08    0.1500000053E-06
     PET DIFF ERROR     8    4    0.2245498913E-08    0.1500000053E-06
     PET DIFF ERROR     8    5    0.2245498948E-08    0.1500000053E-06
                                                   Max.-Head-Change                         Max.-Flux-Residual
  Residual-Control   Outer-Iter.   Inner-Iter.     Column Row Layer    Maximum-Head-Change  Column Row Layer    Maximum-Flux-Residual          L2-NORM 
          0                11           2             4    7     1       0.2753155469E-03       4    7    1         0.1450167115E-01      0.2715193122E-01
     PET DIFF ERROR     6    4    0.2245498963E-08    0.1500000053E-06
     PET DIFF ERROR     6    5    0.2245498913E-08    0.1500000053E-06
     PET DIFF ERROR     7    4    0.2245498913E-08    0.1500000053E-06
     PET DIFF ERROR     7    5    0.2245498899E-08    0.1500000053E-06
     PET DIFF ERROR     8    4    0.2245498913E-08    0.1500000053E-06
     PET DIFF ERROR     8    5    0.2245498948E-08    0.1500000053E-06
          0                12           1             4    7     1       0.1277887191E-03       4    7    1         0.6731931809E-02      0.1255712327E-01
     PET DIFF ERROR     6    4    0.2245498963E-08    0.1500000053E-06
     PET DIFF ERROR     6    5    0.2245498913E-08    0.1500000053E-06
     PET DIFF ERROR     7    4    0.2245498913E-08    0.1500000053E-06
     PET DIFF ERROR     7    5    0.2245498899E-08    0.1500000053E-06
     PET DIFF ERROR     8    4    0.2245498913E-08    0.1500000053E-06
     PET DIFF ERROR     8    5    0.2245498948E-08    0.1500000053E-06
          0                13           1             4    7     1       0.5930406834E-04       4    7    1         0.3124558006E-02      0.5807460061E-02

    ------------------------------------------------
       NWT REQUIRED           13 OUTER ITERATIONS 
       AND A TOTAL OF         24 INNER ITERATIONS.
    ------------------------------------------------

 NO OUTPUT CONTROL FOR STRESS PERIOD   43   TIME STEP   10
     PET DIFF ERROR     6    4    0.2245498963E-08    0.1500000053E-06
     PET DIFF ERROR     6    5    0.2245498913E-08    0.1500000053E-06
     PET DIFF ERROR     7    4    0.2245498913E-08    0.1500000053E-06
     PET DIFF ERROR     7    5    0.2245498899E-08    0.1500000053E-06
     PET DIFF ERROR     8    4    0.2245498913E-08    0.1500000053E-06
     PET DIFF ERROR     8    5    0.2245498948E-08    0.1500000053E-06
 
 SOLVING FOR HEAD 
                                                   Max.-Head-Change                         Max.-Flux-Residual
  Residual-Control   Outer-Iter.   Inner-Iter.     Column Row Layer    Maximum-Head-Change  Column Row Layer    Maximum-Flux-Residual          L2-NORM 
          0                 1           2             4    7     1       0.5717783573E+00       4    7    1         0.3008835123E+02      0.5893869717E+02
          0                 2           2             4    7     1       0.1912718034E+00       4    7    1         0.1009220721E+02      0.1777211741E+02
          0                 3           2             4    7     1       0.8857973933E-01       4    7    1         0.4675082124E+01      0.8205999169E+01
          0                 4           2             4    7     1       0.4101792261E-01       4    7    1         0.2164983542E+01      0.3793692677E+01
          0                 5           2             4    7     1       0.1899205260E-01       4    7    1         0.1002510010E+01      0.1753949432E+01
          0                 6           2             4    7     1       0.8792898550E-02       4    7    1         0.4641730343E+00      0.8109099013E+00
          0                 7           2             4    7     1       0.4070584847E-02       4    7    1         0.2148986143E+00      0.3749125743E+00
          0                 8           2             4    7     1       0.1884293755E-02       4    7    1         0.9948377053E-01      0.1733360691E+00
          0                 9           2             4    7     1       0.8721872127E-03       4    7    1         0.4605091857E-01      0.8013999353E-01
          0                10           2             4    7     1       0.4036846317E-03       4    7    1         0.2131542716E-01      0.3705194055E-01
                                                   Max.-Head-Change                         Max.-Flux-Residual
  Residual-Control   Outer-Iter.   Inner-Iter.     Column Row Layer    Maximum-Head-Change  Column Row Layer    Maximum-Flux-Residual          L2-NORM 
          0                11           2             4    7     1       0.1868306122E-03       4    7    1         0.9865555240E-02      0.1713064823E-01
          0                12           1             4    7     1       0.8646273301E-04       4    7    1         0.4565860901E-02      0.7920228635E-02

    ------------------------------------------------
       NWT REQUIRED           12 OUTER ITERATIONS 
       AND A TOTAL OF         23 INNER ITERATIONS.
    ------------------------------------------------

 NO OUTPUT CONTROL FOR STRESS PERIOD   43   TIME STEP   11
 
 SOLVING FOR HEAD 
                                                   Max.-Head-Change                         Max.-Flux-Residual
  Residual-Control   Outer-Iter.   Inner-Iter.     Column Row Layer    Maximum-Head-Change  Column Row Layer    Maximum-Flux-Residual          L2-NORM 
          0                 1           2             4    7     1       0.5576161865E+00       4    7    1         0.2934867184E+02      0.5673441346E+02
          0                 2           2             4    7     1       0.2591715206E+00       4    7    1         0.1363659168E+02      0.2605550227E+02
          0                 3           2             4    7     1       0.1204263108E+00       4    7    1         0.6338530245E+01      0.1202398526E+02
          0                 4           2             4    7     1       0.5594266193E-01       4    7    1         0.2945079122E+01      0.5550572674E+01
          0                 5           2             4    7     1       0.2598106114E-01       4    7    1         0.1368047056E+01      0.2562484180E+01
          0                 6           2             4    7     1       0.1206332264E-01       4    7    1         0.6353252327E+00      0.1183077954E+01
          0                 7           2             4    7     1       0.5599863838E-02       4    7    1         0.2949770086E+00      0.5462490580E+00
          0                 8           2             4    7     1       0.2598917584E-02       4    7    1         0.1369245366E+00      0.2522263283E+00
          0                 9           2             4    7     1       0.1205913078E-02       4    7    1         0.6354473463E-01      0.1164688913E+00
          0                10           2             4    7     1       0.5594377725E-03       4    7    1         0.2948403946E-01      0.5378324997E-01
                                                   Max.-Head-Change                         Max.-Flux-Residual
  Residual-Control   Outer-Iter.   Inner-Iter.     Column Row Layer    Maximum-Head-Change  Column Row Layer    Maximum-Flux-Residual          L2-NORM 
          0                11           2             4    7     1       0.2594798040E-03       4    7    1         0.1367751945E-01      0.2483703517E-01
          0                12           1             4    7     1       0.1203302788E-03       4    7    1         0.6343724848E-02      0.1147007727E-01
          0                13           1             4    7     1       0.5579166729E-04       4    7    1         0.2941721481E-02      0.5297186796E-02

    ------------------------------------------------
       NWT REQUIRED           13 OUTER ITERATIONS 
       AND A TOTAL OF         24 INNER ITERATIONS.
    ------------------------------------------------

 NO OUTPUT CONTROL FOR STRESS PERIOD   43   TIME STEP   12
 
 SOLVING FOR HEAD 
                                                   Max.-Head-Change                         Max.-Flux-Residual
  Residual-Control   Outer-Iter.   Inner-Iter.     Column Row Layer    Maximum-Head-Change  Column Row Layer    Maximum-Flux-Residual          L2-NORM 
          0                 1           2             4    7     1       0.5424945192E+00       4    7    1         0.2857498669E+02      0.5386165688E+02
          0                 2           2             5    8     1      -0.1705737287E+01       5    8    1        -0.9402385035E+02      0.2210444075E+03
          0                 3           2             4    7     1      -0.5398434149E+00       4    7    1        -0.2913344129E+02      0.5930848866E+02
          0                 4           2             4    7     1       0.3676191741E-01       4    7    1         0.2039295166E+01      0.4151952663E+01
          0                 5           2             4    7     1      -0.1463160328E-02       4    7    1        -0.8342533534E-01      0.1698543955E+00
          0                 6           1             4    7     1       0.1805475836E-04       4    7    1         0.1057824689E-02      0.2154411039E-02

    ------------------------------------------------
       NWT REQUIRED            6 OUTER ITERATIONS 
       AND A TOTAL OF         11 INNER ITERATIONS.
    ------------------------------------------------

 NO OUTPUT CONTROL FOR STRESS PERIOD   43   TIME STEP   13
 
 SOLVING FOR HEAD 
                                                   Max.-Head-Change                         Max.-Flux-Residual
  Residual-Control   Outer-Iter.   Inner-Iter.     Column Row Layer    Maximum-Head-Change  Column Row Layer    Maximum-Flux-Residual          L2-NORM 
          0                 1           2             4    7     1       0.1810974868E+00       4    7    1         0.9645590971E+01      0.1472426662E+02
          0                 2           2             4    7     1      -0.1036167958E+00       4    7    1        -0.5578560563E+01      0.1255810424E+02
          0                 3           2             4    7     1       0.7055800248E-02       4    7    1         0.3904916093E+00      0.8789283376E+00
          0                 4           2             4    7     1      -0.2807574620E-03       4    7    1        -0.1597116523E-01      0.3593974181E-01
          0                 5           1             4    7     1       0.3461860171E-05       4    7    1         0.2024038367E-03      0.4552970205E-03

    ------------------------------------------------
       NWT REQUIRED            5 OUTER ITERATIONS 
       AND A TOTAL OF          9 INNER ITERATIONS.
    ------------------------------------------------

 NO OUTPUT CONTROL FOR STRESS PERIOD   43   TIME STEP   14
 
 SOLVING FOR HEAD 
                                                   Max.-Head-Change                         Max.-Flux-Residual
  Residual-Control   Outer-Iter.   Inner-Iter.     Column Row Layer    Maximum-Head-Change  Column Row Layer    Maximum-Flux-Residual          L2-NORM 
          0                 1           2             4    7     1       0.3963629652E+00       4    7    1         0.2114297649E+02      0.2928932158E+02
          0                 2           2             4    7     1       0.1783061883E+00       4    7    1         0.9502746108E+01      0.1298765649E+02
          0                 3           2             4    7     1       0.8022008807E-01       4    7    1         0.4275723500E+01      0.5857076730E+01
          0                 4           2             4    7     1       0.3609443664E-01       4    7    1         0.1923642767E+01      0.2643330274E+01
          0                 5           2             4    7     1       0.1624193594E-01       4    7    1         0.8655487256E+00      0.1193090795E+01
          0                 6           2             4    7     1       0.7309297876E-02       4    7    1         0.3894901817E+00      0.5385406706E+00
          0                 7           2             4    7     1       0.3289680524E-02       4    7    1         0.1752838618E+00      0.2431015333E+00
          0                 8           2             4    7     1       0.1480715940E-02       4    7    1         0.7889098347E-01      0.1097435462E+00
          0                 9           2             4    7     1       0.6665449484E-03       4    7    1         0.3551016512E-01      0.4954398894E-01
          0                10           2             4    7     1       0.3000726572E-03       4    7    1         0.1598518241E-01      0.2236774697E-01
                                                   Max.-Head-Change                         Max.-Flux-Residual
  Residual-Control   Outer-Iter.   Inner-Iter.     Column Row Layer    Maximum-Head-Change  Column Row Layer    Maximum-Flux-Residual          L2-NORM 
          0                11           1             4    7     1       0.1351021536E-03       4    7    1         0.7196506403E-02      0.1009884059E-01
          0                12           1             4    7     1       0.6083261848E-04       4    7    1         0.3240146267E-02      0.4559713953E-02

    ------------------------------------------------
       NWT REQUIRED           12 OUTER ITERATIONS 
       AND A TOTAL OF         22 INNER ITERATIONS.
    ------------------------------------------------

 NO OUTPUT CONTROL FOR STRESS PERIOD   43   TIME STEP   15
 
 SOLVING FOR HEAD 
     PET DIFF ERROR     6    4    0.2245498913E-08    0.1500000053E-06
     PET DIFF ERROR     6    5    0.2245498913E-08    0.1500000053E-06
     PET DIFF ERROR     7    4    0.2245498913E-08    0.1500000053E-06
     PET DIFF ERROR     7    5    0.2245498899E-08    0.1500000053E-06
     PET DIFF ERROR     8    4    0.2245498913E-08    0.1500000053E-06
     PET DIFF ERROR     8    5    0.2245498906E-08    0.1500000053E-06
                                                   Max.-Head-Change                         Max.-Flux-Residual
  Residual-Control   Outer-Iter.   Inner-Iter.     Column Row Layer    Maximum-Head-Change  Column Row Layer    Maximum-Flux-Residual          L2-NORM 
          0                 1           2             4    7     1       0.4703913607E+00       4    7    1         0.2474307209E+02      0.4789196800E+02
     PET DIFF ERROR     6    4    0.2245498913E-08    0.1500000053E-06
     PET DIFF ERROR     6    5    0.2245498913E-08    0.1500000053E-06
     PET DIFF ERROR     7    4    0.2245498913E-08    0.1500000053E-06
     PET DIFF ERROR     7    5    0.2245498899E-08    0.1500000053E-06
     PET DIFF ERROR     8    4    0.2245498913E-08    0.1500000053E-06
     PET DIFF ERROR     8    5    0.2245498906E-08    0.1500000053E-06
          0                 2           2             4    7     1       0.2116752981E+00       4    7    1         0.1113381738E+02      0.2121311776E+02
     PET DIFF ERROR     6    4    0.2245498913E-08    0.1500000053E-06
     PET DIFF ERROR     6    5    0.2245498913E-08    0.1500000053E-06
     PET DIFF ERROR     7    4    0.2245498913E-08    0.1500000053E-06
     PET DIFF ERROR     7    5    0.2245498899E-08    0.1500000053E-06
     PET DIFF ERROR     8    4    0.2245498913E-08    0.1500000053E-06
     PET DIFF ERROR     8    5    0.2245498906E-08    0.1500000053E-06
          0                 3           2             4    7     1       0.9519456992E-01       4    7    1         0.5010255326E+01      0.9454272993E+01
     PET DIFF ERROR     6    4    0.2245498913E-08    0.1500000053E-06
     PET DIFF ERROR     6    5    0.2245498913E-08    0.1500000053E-06
     PET DIFF ERROR     7    4    0.2245498913E-08    0.1500000053E-06
     PET DIFF ERROR     7    5    0.2245498899E-08    0.1500000053E-06
     PET DIFF ERROR     8    4    0.2245498913E-08    0.1500000053E-06
     PET DIFF ERROR     8    5    0.2245498906E-08    0.1500000053E-06
          0                 4           2             4    7     1       0.4278214914E-01       4    7    1         0.2252927253E+01      0.4209440543E+01
     PET DIFF ERROR     6    4    0.2245498913E-08    0.1500000053E-06
     PET DIFF ERROR     6    5    0.2245498913E-08    0.1500000053E-06
     PET DIFF ERROR     7    4    0.2245498913E-08    0.1500000053E-06
     PET DIFF ERROR     7    5    0.2245498899E-08    0.1500000053E-06
     PET DIFF ERROR     8    4    0.2245498913E-08    0.1500000053E-06
     PET DIFF ERROR     8    5    0.2245498906E-08    0.1500000053E-06
          0                 5           2             4    7     1       0.1921502102E-01       4    7    1         0.1012384526E+01      0.1875311403E+01
     PET DIFF ERROR     6    4    0.2245498913E-08    0.1500000053E-06
     PET DIFF ERROR     6    5    0.2245498913E-08    0.1500000053E-06
     PET DIFF ERROR     7    4    0.2245498913E-08    0.1500000053E-06
     PET DIFF ERROR     7    5    0.2245498899E-08    0.1500000053E-06
     PET DIFF ERROR     8    4    0.2245498913E-08    0.1500000053E-06
     PET DIFF ERROR     8    5    0.2245498906E-08    0.1500000053E-06
          0                 6           2             4    7     1       0.8625323683E-02       4    7    1         0.4546481296E+00      0.8358589221E+00
     PET DIFF ERROR     6    4    0.2245498913E-08    0.1500000053E-06
     PET DIFF ERROR     6    5    0.2245498913E-08    0.1500000053E-06
     PET DIFF ERROR     7    4    0.2245498913E-08    0.1500000053E-06
     PET DIFF ERROR     7    5    0.2245498899E-08    0.1500000053E-06
     PET DIFF ERROR     8    4    0.2245498913E-08    0.1500000053E-06
     PET DIFF ERROR     8    5    0.2245498906E-08    0.1500000053E-06
          0                 7           2             4    7     1       0.3869827103E-02       4    7    1         0.2040641282E+00      0.3727184310E+00
     PET DIFF ERROR     6    4    0.2245498913E-08    0.1500000053E-06
     PET DIFF ERROR     6    5    0.2245498913E-08    0.1500000053E-06
     PET DIFF ERROR     7    4    0.2245498913E-08    0.1500000053E-06
     PET DIFF ERROR     7    5    0.2245498899E-08    0.1500000053E-06
     PET DIFF ERROR     8    4    0.2245498913E-08    0.1500000053E-06
     PET DIFF ERROR     8    5    0.2245498906E-08    0.1500000053E-06
          0                 8           2             4    7     1       0.1735449622E-02       4    7    1         0.9154695947E-01      0.1662628605E+00
     PET DIFF ERROR     6    4    0.2245498913E-08    0.1500000053E-06
     PET DIFF ERROR     6    5    0.2245498913E-08    0.1500000053E-06
     PET DIFF ERROR     7    4    0.2245498913E-08    0.1500000053E-06
     PET DIFF ERROR     7    5    0.2245498899E-08    0.1500000053E-06
     PET DIFF ERROR     8    4    0.2245498913E-08    0.1500000053E-06
     PET DIFF ERROR     8    5    0.2245498906E-08    0.1500000053E-06
          0                 9           2             4    7     1       0.7779596250E-03       4    7    1         0.4105154110E-01      0.7419201879E-01
     PET DIFF ERROR     6    4    0.2245498913E-08    0.1500000053E-06
     PET DIFF ERROR     6    5    0.2245498913E-08    0.1500000053E-06
     PET DIFF ERROR     7    4    0.2245498913E-08    0.1500000053E-06
     PET DIFF ERROR     7    5    0.2245498899E-08    0.1500000053E-06
     PET DIFF ERROR     8    4    0.2245498913E-08    0.1500000053E-06
     PET DIFF ERROR     8    5    0.2245498906E-08    0.1500000053E-06
          0                10           2             4    7     1       0.3486140864E-03       4    7    1         0.1840107520E-01      0.3311691879E-01
     PET DIFF ERROR     6    4    0.2245498913E-08    0.1500000053E-06
     PET DIFF ERROR     6    5    0.2245498913E-08    0.1500000053E-06
     PET DIFF ERROR     7    4    0.2245498913E-08    0.1500000053E-06
     PET DIFF ERROR     7    5    0.2245498899E-08    0.1500000053E-06
     PET DIFF ERROR     8    4    0.2245498913E-08    0.1500000053E-06
     PET DIFF ERROR     8    5    0.2245498906E-08    0.1500000053E-06
                                                   Max.-Head-Change                         Max.-Flux-Residual
  Residual-Control   Outer-Iter.   Inner-Iter.     Column Row Layer    Maximum-Head-Change  Column Row Layer    Maximum-Flux-Residual          L2-NORM 
          0                11           2             4    7     1       0.1561679884E-03       4    7    1         0.8245234284E-02      0.1478627172E-01
     PET DIFF ERROR     6    4    0.2245498913E-08    0.1500000053E-06
     PET DIFF ERROR     6    5    0.2245498913E-08    0.1500000053E-06
     PET DIFF ERROR     7    4    0.2245498913E-08    0.1500000053E-06
     PET DIFF ERROR     7    5    0.2245498899E-08    0.1500000053E-06
     PET DIFF ERROR     8    4    0.2245498913E-08    0.1500000053E-06
     PET DIFF ERROR     8    5    0.2245498906E-08    0.1500000053E-06
          0                12           1             4    7     1       0.6993797667E-04       4    7    1         0.3693387981E-02      0.6603443418E-02

    ------------------------------------------------
       NWT REQUIRED           12 OUTER ITERATIONS 
       AND A TOTAL OF         23 INNER ITERATIONS.
    ------------------------------------------------

 NO OUTPUT CONTROL FOR STRESS PERIOD   43   TIME STEP   16
     PET DIFF ERROR     6    4    0.2245498913E-08    0.1500000053E-06
     PET DIFF ERROR     6    5    0.2245498913E-08    0.1500000053E-06
     PET DIFF ERROR     7    4    0.2245498913E-08    0.1500000053E-06
     PET DIFF ERROR     7    5    0.2245498899E-08    0.1500000053E-06
     PET DIFF ERROR     8    4    0.2245498913E-08    0.1500000053E-06
     PET DIFF ERROR     8    5    0.2245498906E-08    0.1500000053E-06
 
 SOLVING FOR HEAD 
                                                   Max.-Head-Change                         Max.-Flux-Residual
  Residual-Control   Outer-Iter.   Inner-Iter.     Column Row Layer    Maximum-Head-Change  Column Row Layer    Maximum-Flux-Residual          L2-NORM 
          0                 1           2             4    7     1       0.4312709969E+00       4    7    1         0.2269784861E+02      0.4730486847E+02
          0                 2           2             4    7     1       0.1174613279E+00       4    7    1         0.6214518968E+01      0.1146013768E+02
          0                 3           2             4    7     1       0.5194880216E-01       4    7    1         0.2749174923E+01      0.5060172164E+01
          0                 4           2             4    7     1       0.2297327783E-01       4    7    1         0.1215807063E+01      0.2239448071E+01
          0                 5           2             4    7     1       0.1015876902E-01       4    7    1         0.5376612006E+00      0.9912294940E+00
          0                 6           2             4    7     1       0.4491935512E-02       4    7    1         0.2377505182E+00      0.4387627879E+00
          0                 7           2             4    7     1       0.1986111139E-02       4    7    1         0.1051258310E+00      0.1942256559E+00
          0                 8           2             4    7     1       0.8781206904E-03       4    7    1         0.4648100372E-01      0.8598122556E-01
          0                 9           2             4    7     1       0.3882292593E-03       4    7    1         0.2055051508E-01      0.3806447832E-01
          0                10           2             4    7     1       0.1716359396E-03       4    7    1         0.9085603976E-02      0.1685211661E-01
          0                11           1             4    7     1       0.7587809681E-04       4    7    1         0.4016717270E-02      0.7461162798E-02

    ------------------------------------------------
       NWT REQUIRED           11 OUTER ITERATIONS 
       AND A TOTAL OF         21 INNER ITERATIONS.
    ------------------------------------------------

 NO OUTPUT CONTROL FOR STRESS PERIOD   43   TIME STEP   17
 
 SOLVING FOR HEAD 
                                                   Max.-Head-Change                         Max.-Flux-Residual
  Residual-Control   Outer-Iter.   Inner-Iter.     Column Row Layer    Maximum-Head-Change  Column Row Layer    Maximum-Flux-Residual          L2-NORM 
          0                 1           2             4    7     1       0.3989355619E+00       4    7    1         0.2091558099E+02      0.4559177914E+02
          0                 2           2             4    7     1       0.1761311622E+00       4    8    1         0.9282647955E+01      0.2045385177E+02
          0                 3           2             4    8     1       0.8089273028E-01       4    8    1         0.4284009665E+01      0.9210595275E+01
          0                 4           2             4    8     1       0.3724860156E-01       4    8    1         0.1974515269E+01      0.4153447942E+01
          0                 5           2             4    8     1       0.1713380342E-01       4    8    1         0.9090175160E+00      0.1874741357E+01
          0                 6           2             4    8     1       0.7873841753E-02       4    8    1         0.4180578580E+00      0.8469203534E+00
          0                 7           2             4    8     1       0.3615338744E-02       4    8    1         0.1920867321E+00      0.3828817877E+00
          0                 8           2             4    8     1       0.1658732575E-02       4    8    1         0.8818500123E-01      0.1732080608E+00
          0                 9           2             4    8     1       0.7605021627E-03       4    8    1         0.4045417137E-01      0.7840014366E-01
          0                10           2             4    8     1       0.3484571579E-03       4    8    1         0.1854530972E-01      0.3550417627E-01
                                                   Max.-Head-Change                         Max.-Flux-Residual
  Residual-Control   Outer-Iter.   Inner-Iter.     Column Row Layer    Maximum-Head-Change  Column Row Layer    Maximum-Flux-Residual          L2-NORM 
          0                11           2             4    8     1       0.1595689202E-03       4    8    1         0.8496393708E-02      0.1608525917E-01
          0                12           1             4    8     1       0.7303305331E-04       4    8    1         0.3890357646E-02      0.7290180858E-02

    ------------------------------------------------
       NWT REQUIRED           12 OUTER ITERATIONS 
       AND A TOTAL OF         23 INNER ITERATIONS.
    ------------------------------------------------

 NO OUTPUT CONTROL FOR STRESS PERIOD   43   TIME STEP   18
 
 SOLVING FOR HEAD 
                                                   Max.-Head-Change                         Max.-Flux-Residual
  Residual-Control   Outer-Iter.   Inner-Iter.     Column Row Layer    Maximum-Head-Change  Column Row Layer    Maximum-Flux-Residual          L2-NORM 
          0                 1           2             4    7     1       0.4179646789E+00       5    7    1         0.2192176804E+02      0.4825976387E+02
          0                 2           2             4    6     1      -0.1704889897E+01       5    8    1        -0.9327939111E+02      0.2234574145E+03
          0                 3           2             5    7     1      -0.4492147441E+00       5    7    1        -0.2452241563E+02      0.5196932582E+02
          0                 4           2             5    7     1       0.3059101328E-01       5    7    1         0.1716600355E+01      0.3638179225E+01
          0                 5           2             5    7     1      -0.1217549053E-02       5    7    1        -0.7022669878E-01      0.1488365529E+00
          0                 6           1             5    7     1       0.1502404960E-04       5    7    1         0.8906479184E-03      0.1887749056E-02

    ------------------------------------------------
       NWT REQUIRED            6 OUTER ITERATIONS 
       AND A TOTAL OF         11 INNER ITERATIONS.
    ------------------------------------------------

 NO OUTPUT CONTROL FOR STRESS PERIOD   43   TIME STEP   19
 
 SOLVING FOR HEAD 
                                                   Max.-Head-Change                         Max.-Flux-Residual
  Residual-Control   Outer-Iter.   Inner-Iter.     Column Row Layer    Maximum-Head-Change  Column Row Layer    Maximum-Flux-Residual          L2-NORM 
          0                 1           2             4    7     1       0.1343931605E+00       4    7    1         0.7125023133E+01      0.1270041015E+02
          0                 2           2             4    7     1      -0.9906598959E-01       4    7    1        -0.5326480517E+01      0.1247478169E+02
          0                 3           2             4    7     1       0.6745939810E-02       4    7    1         0.3728481530E+00      0.8730851248E+00
          0                 4           2             4    7     1      -0.2684276696E-03       4    7    1        -0.1524953687E-01      0.3569999480E-01
          0                 5           1             4    7     1       0.3309828819E-05       4    7    1         0.1932586028E-03      0.4522747237E-03

    ------------------------------------------------
       NWT REQUIRED            5 OUTER ITERATIONS 
       AND A TOTAL OF          9 INNER ITERATIONS.
    ------------------------------------------------

 NO OUTPUT CONTROL FOR STRESS PERIOD   43   TIME STEP   20
 
 SOLVING FOR HEAD 
                                                   Max.-Head-Change                         Max.-Flux-Residual
  Residual-Control   Outer-Iter.   Inner-Iter.     Column Row Layer    Maximum-Head-Change  Column Row Layer    Maximum-Flux-Residual          L2-NORM 
          0                 1           2             4    7     1       0.2166206878E+00       4    7    1         0.1152364935E+02      0.1858192265E+02
          0                 2           2             4    7     1       0.9773333943E-01       4    7    1         0.5193978639E+01      0.7985236718E+01
          0                 3           2             4    7     1       0.4403670850E-01       4    7    1         0.2340925613E+01      0.3567903136E+01
          0                 4           2             4    7     1       0.1972434946E-01       4    7    1         0.1048374303E+01      0.1594625747E+01
          0                 5           2             4    7     1       0.8835751679E-02       4    7    1         0.4695881748E+00      0.7131070018E+00
          0                 6           2             4    7     1       0.3958537547E-02       4    7    1         0.2103620549E+00      0.3190519134E+00
          0                 7           2             4    7     1       0.1773675727E-02       4    7    1         0.9424709155E-01      0.1428123783E+00
          0                 8           2             4    7     1       0.7948036101E-03       4    7    1         0.4222952213E-01      0.6395202918E-01
          0                 9           2             4    7     1       0.3561965998E-03       4    7    1         0.1892387855E-01      0.2864931210E-01
          0                10           1             4    7     1       0.1596476025E-03       4    7    1         0.8481020787E-02      0.1283906997E-01
          0                11           1             4    7     1       0.7156097624E-04       4    7    1         0.3801268083E-02      0.5755741747E-02

    ------------------------------------------------
       NWT REQUIRED           11 OUTER ITERATIONS 
       AND A TOTAL OF         20 INNER ITERATIONS.
    ------------------------------------------------

 NO OUTPUT CONTROL FOR STRESS PERIOD   43   TIME STEP   21
 
 SOLVING FOR HEAD 
     PET DIFF ERROR     6    4    0.2245498963E-08    0.1500000053E-06
     PET DIFF ERROR     6    5    0.2245498948E-08    0.1500000053E-06
     PET DIFF ERROR     7    4    0.2245498948E-08    0.1500000053E-06
     PET DIFF ERROR     7    5    0.2245498913E-08    0.1500000053E-06
     PET DIFF ERROR     8    4    0.2245498948E-08    0.1500000053E-06
     PET DIFF ERROR     8    5    0.2245498963E-08    0.1500000053E-06
                                                   Max.-Head-Change                         Max.-Flux-Residual
  Residual-Control   Outer-Iter.   Inner-Iter.     Column Row Layer    Maximum-Head-Change  Column Row Layer    Maximum-Flux-Residual          L2-NORM 
          0                 1           2             4    7     1       0.4290639904E+00       4    7    1         0.2251269928E+02      0.4694590629E+02
     PET DIFF ERROR     6    4    0.2245498963E-08    0.1500000053E-06
     PET DIFF ERROR     6    5    0.2245498948E-08    0.1500000053E-06
     PET DIFF ERROR     7    4    0.2245498948E-08    0.1500000053E-06
     PET DIFF ERROR     7    5    0.2245498913E-08    0.1500000053E-06
     PET DIFF ERROR     8    4    0.2245498948E-08    0.1500000053E-06
     PET DIFF ERROR     8    5    0.2245498963E-08    0.1500000053E-06
          0                 2           2             4    7     1       0.1935370846E+00       4    7    1         0.1015670097E+02      0.2082004466E+02
     PET DIFF ERROR     6    4    0.2245498963E-08    0.1500000053E-06
     PET DIFF ERROR     6    5    0.2245498948E-08    0.1500000053E-06
     PET DIFF ERROR     7    4    0.2245498948E-08    0.1500000053E-06
     PET DIFF ERROR     7    5    0.2245498913E-08    0.1500000053E-06
     PET DIFF ERROR     8    4    0.2245498948E-08    0.1500000053E-06
     PET DIFF ERROR     8    5    0.2245498963E-08    0.1500000053E-06
          0                 3           2             4    7     1       0.8722358609E-01       4    7    1         0.4581164989E+01      0.9270467144E+01
     PET DIFF ERROR     6    4    0.2245498963E-08    0.1500000053E-06
     PET DIFF ERROR     6    5    0.2245498948E-08    0.1500000053E-06
     PET DIFF ERROR     7    4    0.2245498948E-08    0.1500000053E-06
     PET DIFF ERROR     7    5    0.2245498913E-08    0.1500000053E-06
     PET DIFF ERROR     8    4    0.2245498948E-08    0.1500000053E-06
     PET DIFF ERROR     8    5    0.2245498963E-08    0.1500000053E-06
          0                 4           2             4    7     1       0.3927898849E-01       4    7    1         0.2064296579E+01      0.4130305653E+01
     PET DIFF ERROR     6    4    0.2245498963E-08    0.1500000053E-06
     PET DIFF ERROR     6    5    0.2245498948E-08    0.1500000053E-06
     PET DIFF ERROR     7    4    0.2245498948E-08    0.1500000053E-06
     PET DIFF ERROR     7    5    0.2245498913E-08    0.1500000053E-06
     PET DIFF ERROR     8    4    0.2245498948E-08    0.1500000053E-06
     PET DIFF ERROR     8    5    0.2245498963E-08    0.1500000053E-06
          0                 5           2             4    7     1       0.1767574196E-01       4    7    1         0.9294777076E+00      0.1841131990E+01
     PET DIFF ERROR     6    4    0.2245498963E-08    0.1500000053E-06
     PET DIFF ERROR     6    5    0.2245498948E-08    0.1500000053E-06
     PET DIFF ERROR     7    4    0.2245498948E-08    0.1500000053E-06
     PET DIFF ERROR     7    5    0.2245498913E-08    0.1500000053E-06
     PET DIFF ERROR     8    4    0.2245498948E-08    0.1500000053E-06
     PET DIFF ERROR     8    5    0.2245498963E-08    0.1500000053E-06
          0                 6           2             4    7     1       0.7949075053E-02       4    7    1         0.4182167213E+00      0.8210518012E+00
     PET DIFF ERROR     6    4    0.2245498963E-08    0.1500000053E-06
     PET DIFF ERROR     6    5    0.2245498948E-08    0.1500000053E-06
     PET DIFF ERROR     7    4    0.2245498948E-08    0.1500000053E-06
     PET DIFF ERROR     7    5    0.2245498913E-08    0.1500000053E-06
     PET DIFF ERROR     8    4    0.2245498948E-08    0.1500000053E-06
     PET DIFF ERROR     8    5    0.2245498963E-08    0.1500000053E-06
          0                 7           2             4    7     1       0.3572764507E-02       4    7    1         0.1880575806E+00      0.3662855538E+00
     PET DIFF ERROR     6    4    0.2245498963E-08    0.1500000053E-06
     PET DIFF ERROR     6    5    0.2245498948E-08    0.1500000053E-06
     PET DIFF ERROR     7    4    0.2245498948E-08    0.1500000053E-06
     PET DIFF ERROR     7    5    0.2245498913E-08    0.1500000053E-06
     PET DIFF ERROR     8    4    0.2245498948E-08    0.1500000053E-06
     PET DIFF ERROR     8    5    0.2245498963E-08    0.1500000053E-06
          0                 8           2             4    7     1       0.1604964408E-02       4    7    1         0.8451501527E-01      0.1634606361E+00
     PET DIFF ERROR     6    4    0.2245498963E-08    0.1500000053E-06
     PET DIFF ERROR     6    5    0.2245498948E-08    0.1500000053E-06
     PET DIFF ERROR     7    4    0.2245498948E-08    0.1500000053E-06
     PET DIFF ERROR     7    5    0.2245498913E-08    0.1500000053E-06
     PET DIFF ERROR     8    4    0.2245498948E-08    0.1500000053E-06
     PET DIFF ERROR     8    5    0.2245498963E-08    0.1500000053E-06
          0                 9           2             4    7     1       0.7206451717E-03       4    7    1         0.3796246643E-01      0.7296825985E-01
     PET DIFF ERROR     6    4    0.2245498963E-08    0.1500000053E-06
     PET DIFF ERROR     6    5    0.2245498948E-08    0.1500000053E-06
     PET DIFF ERROR     7    4    0.2245498948E-08    0.1500000053E-06
     PET DIFF ERROR     7    5    0.2245498913E-08    0.1500000053E-06
     PET DIFF ERROR     8    4    0.2245498948E-08    0.1500000053E-06
     PET DIFF ERROR     8    5    0.2245498963E-08    0.1500000053E-06
          0                10           2             4    7     1       0.3234388834E-03       4    7    1         0.1704409287E-01      0.3258122085E-01
     PET DIFF ERROR     6    4    0.2245498963E-08    0.1500000053E-06
     PET DIFF ERROR     6    5    0.2245498948E-08    0.1500000053E-06
     PET DIFF ERROR     7    4    0.2245498948E-08    0.1500000053E-06
     PET DIFF ERROR     7    5    0.2245498913E-08    0.1500000053E-06
     PET DIFF ERROR     8    4    0.2245498948E-08    0.1500000053E-06
     PET DIFF ERROR     8    5    0.2245498963E-08    0.1500000053E-06
                                                   Max.-Head-Change                         Max.-Flux-Residual
  Residual-Control   Outer-Iter.   Inner-Iter.     Column Row Layer    Maximum-Head-Change  Column Row Layer    Maximum-Flux-Residual          L2-NORM 
          0                11           2             4    7     1       0.1451093153E-03       4    7    1         0.7649120749E-02      0.1455124700E-01
     PET DIFF ERROR     6    4    0.2245498963E-08    0.1500000053E-06
     PET DIFF ERROR     6    5    0.2245498948E-08    0.1500000053E-06
     PET DIFF ERROR     7    4    0.2245498948E-08    0.1500000053E-06
     PET DIFF ERROR     7    5    0.2245498913E-08    0.1500000053E-06
     PET DIFF ERROR     8    4    0.2245498948E-08    0.1500000053E-06
     PET DIFF ERROR     8    5    0.2245498963E-08    0.1500000053E-06
          0                12           1             4    7     1       0.6507985565E-04       4    7    1         0.3431504698E-02      0.6500115419E-02

    ------------------------------------------------
       NWT REQUIRED           12 OUTER ITERATIONS 
       AND A TOTAL OF         23 INNER ITERATIONS.
    ------------------------------------------------

 NO OUTPUT CONTROL FOR STRESS PERIOD   43   TIME STEP   22
     PET DIFF ERROR     6    4    0.2245498963E-08    0.1500000053E-06
     PET DIFF ERROR     6    5    0.2245498948E-08    0.1500000053E-06
     PET DIFF ERROR     7    4    0.2245498948E-08    0.1500000053E-06
     PET DIFF ERROR     7    5    0.2245498913E-08    0.1500000053E-06
     PET DIFF ERROR     8    4    0.2245498948E-08    0.1500000053E-06
     PET DIFF ERROR     8    5    0.2245498963E-08    0.1500000053E-06
 
 SOLVING FOR HEAD 
                                                   Max.-Head-Change                         Max.-Flux-Residual
  Residual-Control   Outer-Iter.   Inner-Iter.     Column Row Layer    Maximum-Head-Change  Column Row Layer    Maximum-Flux-Residual          L2-NORM 
          0                 1           2             5    8     1       0.4027030331E+00       5    8    1         0.2171060455E+02      0.4632746869E+02
          0                 2           2             5    8     1       0.1084605384E+00       5    8    1         0.5876234622E+01      0.1097975560E+02
          0                 3           2             5    8     1       0.4848424581E-01       5    8    1         0.2627784815E+01      0.4837984597E+01
          0                 4           2             5    8     1       0.2161385021E-01       5    8    1         0.1171620702E+01      0.2136210680E+01
          0                 5           2             5    8     1       0.9623112637E-02       5    8    1         0.5217192872E+00      0.9430944114E+00
          0                 6           2             5    8     1       0.4283737410E-02       5    8    1         0.2322768314E+00      0.4163893588E+00
          0                 7           2             5    8     1       0.1906586608E-02       5    8    1         0.1033949847E+00      0.1838553264E+00
          0                 8           2             5    8     1       0.8484361536E-03       5    8    1         0.4601715912E-01      0.8118645576E-01
          0                 9           2             5    8     1       0.3774966928E-03       5    8    1         0.2047714973E-01      0.3585258121E-01
          0                10           2             5    8     1       0.1679348521E-03       5    8    1         0.9110684088E-02      0.1583381478E-01
          0                11           1             5    8     1       0.7469722678E-04       5    8    1         0.4052906535E-02      0.6993230640E-02

    ------------------------------------------------
       NWT REQUIRED           11 OUTER ITERATIONS 
       AND A TOTAL OF         21 INNER ITERATIONS.
    ------------------------------------------------

 NO OUTPUT CONTROL FOR STRESS PERIOD   43   TIME STEP   23
 
 SOLVING FOR HEAD 
                                                   Max.-Head-Change                         Max.-Flux-Residual
  Residual-Control   Outer-Iter.   Inner-Iter.     Column Row Layer    Maximum-Head-Change  Column Row Layer    Maximum-Flux-Residual          L2-NORM 
          0                 1           2             4    8     1       0.3847879128E+00       4    8    1         0.2035158791E+02      0.4521822109E+02
          0                 2           2             4    8     1       0.1774408906E+00       4    8    1         0.9394907038E+01      0.2029709291E+02
          0                 3           2             4    8     1       0.8172787840E-01       4    8    1         0.4331358795E+01      0.9150876904E+01
          0                 4           2             4    8     1       0.3760310415E-01       4    8    1         0.1994587244E+01      0.4130665039E+01
          0                 5           2             4    8     1       0.1728463522E-01       4    8    1         0.9175406332E+00      0.1866095671E+01
          0                 6           2             4    8     1       0.7938169598E-02       4    8    1         0.4216859677E+00      0.8436621176E+00
          0                 7           2             4    8     1       0.3642839713E-02       4    8    1         0.1936347737E+00      0.3816641976E+00
          0                 8           2             4    8     1       0.1670517988E-02       4    8    1         0.8884711257E-01      0.1727578168E+00
          0                 9           2             4    8     1       0.7655649442E-03       4    8    1         0.4073804600E-01      0.7823587459E-01
          0                10           2             4    8     1       0.3506372524E-03       4    8    1         0.1866731228E-01      0.3544529326E-01
                                                   Max.-Head-Change                         Max.-Flux-Residual
  Residual-Control   Outer-Iter.   Inner-Iter.     Column Row Layer    Maximum-Head-Change  Column Row Layer    Maximum-Flux-Residual          L2-NORM 
          0                11           2             4    8     1       0.1605099258E-03       4    8    1         0.8548953222E-02      0.1606465454E-01
          0                12           1             4    8     1       0.7344017481E-04       4    8    1         0.3913054291E-02      0.7283216454E-02

    ------------------------------------------------
       NWT REQUIRED           12 OUTER ITERATIONS 
       AND A TOTAL OF         23 INNER ITERATIONS.
    ------------------------------------------------

 NO OUTPUT CONTROL FOR STRESS PERIOD   43   TIME STEP   24
 
 SOLVING FOR HEAD 
                                                   Max.-Head-Change                         Max.-Flux-Residual
  Residual-Control   Outer-Iter.   Inner-Iter.     Column Row Layer    Maximum-Head-Change  Column Row Layer    Maximum-Flux-Residual          L2-NORM 
          0                 1           2             4    7     1       0.4152815606E+00       4    7    1         0.2177816217E+02      0.4791733981E+02
          0                 2           2             4    6     1      -0.1708222401E+01       4    6    1        -0.9302345288E+02      0.2235630878E+03
          0                 3           2             5    7     1      -0.4431274065E+00       5    7    1        -0.2415219098E+02      0.5220650247E+02
          0                 4           2             5    7     1       0.3017698952E-01       5    7    1         0.1690719951E+01      0.3654785023E+01
          0                 5           2             5    7     1      -0.1201068075E-02       5    7    1        -0.6916775686E-01      0.1495158518E+00
          0                 6           1             5    7     1       0.1482068568E-04       5    7    1         0.8772181870E-03      0.1896357070E-02

    ------------------------------------------------
       NWT REQUIRED            6 OUTER ITERATIONS 
       AND A TOTAL OF         11 INNER ITERATIONS.
    ------------------------------------------------

 NO OUTPUT CONTROL FOR STRESS PERIOD   43   TIME STEP   25
 
 SOLVING FOR HEAD 
                                                   Max.-Head-Change                         Max.-Flux-Residual
  Residual-Control   Outer-Iter.   Inner-Iter.     Column Row Layer    Maximum-Head-Change  Column Row Layer    Maximum-Flux-Residual          L2-NORM 
          0                 1           2             4    7     1       0.1094129719E+00       4    7    1         0.5777219109E+01      0.1165696778E+02
          0                 2           2             4    7     1      -0.9663209191E-01       4    7    1        -0.5191689379E+01      0.1240852222E+02
          0                 3           2             4    7     1       0.6580217216E-02       4    7    1         0.3634138833E+00      0.8684469859E+00
          0                 4           2             4    7     1      -0.2618333323E-03       4    7    1        -0.1486366954E-01      0.3551040571E-01
          0                 5           1             4    7     1       0.3228518034E-05       4    7    1         0.1883684777E-03      0.4499213152E-03

    ------------------------------------------------
       NWT REQUIRED            5 OUTER ITERATIONS 
       AND A TOTAL OF          9 INNER ITERATIONS.
    ------------------------------------------------

 NO OUTPUT CONTROL FOR STRESS PERIOD   43   TIME STEP   26
 
 SOLVING FOR HEAD 
                                                   Max.-Head-Change                         Max.-Flux-Residual
  Residual-Control   Outer-Iter.   Inner-Iter.     Column Row Layer    Maximum-Head-Change  Column Row Layer    Maximum-Flux-Residual          L2-NORM 
          0                 1           2             4    7     1       0.1831211482E+00       4    7    1         0.9728388494E+01      0.1681893021E+02
          0                 2           2             4    7     1       0.8216094124E-01       4    7    1         0.4360103749E+01      0.7146838122E+01
          0                 3           2             4    7     1       0.3686706274E-01       4    7    1         0.1956703348E+01      0.3181107956E+01
          0                 4           2             4    7     1       0.1654451375E-01       4    7    1         0.8779976324E+00      0.1421033581E+01
          0                 5           2             4    7     1       0.7425195806E-02       4    7    1         0.3940206656E+00      0.6352156350E+00
          0                 6           2             4    7     1       0.3332704870E-02       4    7    1         0.1768396428E+00      0.2841116370E+00
          0                 7           2             4    7     1       0.1495952734E-02       4    7    1         0.7937340082E-01      0.1271420419E+00
          0                 8           2             4    7     1       0.6715345542E-03       4    7    1         0.3562884809E-01      0.5692504952E-01
          0                 9           2             4    7     1       0.3014713718E-03       4    7    1         0.1599401796E-01      0.2549852775E-01
          0                10           1             4    7     1       0.1353471310E-03       4    7    1         0.7180260252E-02      0.1142638166E-01
          0                11           1             4    7     1       0.6076809283E-04       4    7    1         0.3223648665E-02      0.5122357607E-02

    ------------------------------------------------
       NWT REQUIRED           11 OUTER ITERATIONS 
       AND A TOTAL OF         20 INNER ITERATIONS.
    ------------------------------------------------

 NO OUTPUT CONTROL FOR STRESS PERIOD   43   TIME STEP   27
 
 SOLVING FOR HEAD 
     PET DIFF ERROR     6    4    0.2245498948E-08    0.1500000053E-06
     PET DIFF ERROR     6    5    0.2245498899E-08    0.1500000053E-06
     PET DIFF ERROR     7    4    0.2245498963E-08    0.1500000053E-06
     PET DIFF ERROR     7    5    0.2245498963E-08    0.1500000053E-06
     PET DIFF ERROR     8    4    0.2245498913E-08    0.1500000053E-06
     PET DIFF ERROR     8    5    0.2245498938E-08    0.1500000053E-06
                                                   Max.-Head-Change                         Max.-Flux-Residual
  Residual-Control   Outer-Iter.   Inner-Iter.     Column Row Layer    Maximum-Head-Change  Column Row Layer    Maximum-Flux-Residual          L2-NORM 
          0                 1           2             4    7     1       0.4043286549E+00       4    6    1         0.2144064380E+02      0.4617484469E+02
     PET DIFF ERROR     6    4    0.2245498948E-08    0.1500000053E-06
     PET DIFF ERROR     6    5    0.2245498899E-08    0.1500000053E-06
     PET DIFF ERROR     7    4    0.2245498963E-08    0.1500000053E-06
     PET DIFF ERROR     7    5    0.2245498963E-08    0.1500000053E-06
     PET DIFF ERROR     8    4    0.2245498913E-08    0.1500000053E-06
     PET DIFF ERROR     8    5    0.2245498938E-08    0.1500000053E-06
          0                 2           2             4    7     1       0.1826886149E+00       4    6    1         0.9623822259E+01      0.2047419669E+02
     PET DIFF ERROR     6    4    0.2245498948E-08    0.1500000053E-06
     PET DIFF ERROR     6    5    0.2245498899E-08    0.1500000053E-06
     PET DIFF ERROR     7    4    0.2245498963E-08    0.1500000053E-06
     PET DIFF ERROR     7    5    0.2245498963E-08    0.1500000053E-06
     PET DIFF ERROR     8    4    0.2245498913E-08    0.1500000053E-06
     PET DIFF ERROR     8    5    0.2245498938E-08    0.1500000053E-06
          0                 3           2             4    7     1       0.8217222043E-01       4    6    1         0.4320972683E+01      0.9111989491E+01
     PET DIFF ERROR     6    4    0.2245498948E-08    0.1500000053E-06
     PET DIFF ERROR     6    5    0.2245498899E-08    0.1500000053E-06
     PET DIFF ERROR     7    4    0.2245498963E-08    0.1500000053E-06
     PET DIFF ERROR     7    5    0.2245498963E-08    0.1500000053E-06
     PET DIFF ERROR     8    4    0.2245498913E-08    0.1500000053E-06
     PET DIFF ERROR     8    5    0.2245498938E-08    0.1500000053E-06
          0                 4           2             4    7     1       0.3671133253E-01       4    6    1         0.1928438528E+01      0.4046553407E+01
     PET DIFF ERROR     6    4    0.2245498948E-08    0.1500000053E-06
     PET DIFF ERROR     6    5    0.2245498899E-08    0.1500000053E-06
     PET DIFF ERROR     7    4    0.2245498963E-08    0.1500000053E-06
     PET DIFF ERROR     7    5    0.2245498963E-08    0.1500000053E-06
     PET DIFF ERROR     8    4    0.2245498913E-08    0.1500000053E-06
     PET DIFF ERROR     8    5    0.2245498938E-08    0.1500000053E-06
          0                 5           2             4    7     1       0.1639260607E-01       4    7    1         0.8604842356E+00      0.1796489714E+01
     PET DIFF ERROR     6    4    0.2245498948E-08    0.1500000053E-06
     PET DIFF ERROR     6    5    0.2245498899E-08    0.1500000053E-06
     PET DIFF ERROR     7    4    0.2245498963E-08    0.1500000053E-06
     PET DIFF ERROR     7    5    0.2245498963E-08    0.1500000053E-06
     PET DIFF ERROR     8    4    0.2245498913E-08    0.1500000053E-06
     PET DIFF ERROR     8    5    0.2245498938E-08    0.1500000053E-06
          0                 6           2             4    7     1       0.7316231795E-02       4    7    1         0.3841929040E+00      0.7978167497E+00
     PET DIFF ERROR     6    4    0.2245498948E-08    0.1500000053E-06
     PET DIFF ERROR     6    5    0.2245498899E-08    0.1500000053E-06
     PET DIFF ERROR     7    4    0.2245498963E-08    0.1500000053E-06
     PET DIFF ERROR     7    5    0.2245498963E-08    0.1500000053E-06
     PET DIFF ERROR     8    4    0.2245498913E-08    0.1500000053E-06
     PET DIFF ERROR     8    5    0.2245498938E-08    0.1500000053E-06
          0                 7           2             4    7     1       0.3263918941E-02       4    7    1         0.1714555468E+00      0.3544129926E+00
     PET DIFF ERROR     6    4    0.2245498948E-08    0.1500000053E-06
     PET DIFF ERROR     6    5    0.2245498899E-08    0.1500000053E-06
     PET DIFF ERROR     7    4    0.2245498963E-08    0.1500000053E-06
     PET DIFF ERROR     7    5    0.2245498963E-08    0.1500000053E-06
     PET DIFF ERROR     8    4    0.2245498913E-08    0.1500000053E-06
     PET DIFF ERROR     8    5    0.2245498938E-08    0.1500000053E-06
          0                 8           2             4    7     1       0.1455534541E-02       4    7    1         0.7648386736E-01      0.1574825207E+00
     PET DIFF ERROR     6    4    0.2245498948E-08    0.1500000053E-06
     PET DIFF ERROR     6    5    0.2245498899E-08    0.1500000053E-06
     PET DIFF ERROR     7    4    0.2245498963E-08    0.1500000053E-06
     PET DIFF ERROR     7    5    0.2245498963E-08    0.1500000053E-06
     PET DIFF ERROR     8    4    0.2245498913E-08    0.1500000053E-06
     PET DIFF ERROR     8    5    0.2245498938E-08    0.1500000053E-06
          0                 9           2             4    7     1       0.6488642870E-03       4    7    1         0.3410536669E-01      0.6999405045E-01
     PET DIFF ERROR     6    4    0.2245498948E-08    0.1500000053E-06
     PET DIFF ERROR     6    5    0.2245498899E-08    0.1500000053E-06
     PET DIFF ERROR     7    4    0.2245498963E-08    0.1500000053E-06
     PET DIFF ERROR     7    5    0.2245498963E-08    0.1500000053E-06
     PET DIFF ERROR     8    4    0.2245498913E-08    0.1500000053E-06
     PET DIFF ERROR     8    5    0.2245498938E-08    0.1500000053E-06
          0                10           2             4    7     1       0.2891670256E-03       4    7    1         0.1520291393E-01      0.3111621593E-01
     PET DIFF ERROR     6    4    0.2245498948E-08    0.1500000053E-06
     PET DIFF ERROR     6    5    0.2245498899E-08    0.1500000053E-06
     PET DIFF ERROR     7    4    0.2245498963E-08    0.1500000053E-06
     PET DIFF ERROR     7    5    0.2245498963E-08    0.1500000053E-06
     PET DIFF ERROR     8    4    0.2245498913E-08    0.1500000053E-06
     PET DIFF ERROR     8    5    0.2245498938E-08    0.1500000053E-06
                                                   Max.-Head-Change                         Max.-Flux-Residual
  Residual-Control   Outer-Iter.   Inner-Iter.     Column Row Layer    Maximum-Head-Change  Column Row Layer    Maximum-Flux-Residual          L2-NORM 
          0                11           2             4    7     1       0.1288312107E-03       4    7    1         0.6774811789E-02      0.1383570019E-01
     PET DIFF ERROR     6    4    0.2245498948E-08    0.1500000053E-06
     PET DIFF ERROR     6    5    0.2245498899E-08    0.1500000053E-06
     PET DIFF ERROR     7    4    0.2245498963E-08    0.1500000053E-06
     PET DIFF ERROR     7    5    0.2245498963E-08    0.1500000053E-06
     PET DIFF ERROR     8    4    0.2245498913E-08    0.1500000053E-06
     PET DIFF ERROR     8    5    0.2245498938E-08    0.1500000053E-06
          0                12           1             4    7     1       0.5738302419E-04       4    7    1         0.3018196775E-02      0.6153141899E-02

    ------------------------------------------------
       NWT REQUIRED           12 OUTER ITERATIONS 
       AND A TOTAL OF         23 INNER ITERATIONS.
    ------------------------------------------------

 NO OUTPUT CONTROL FOR STRESS PERIOD   43   TIME STEP   28
     PET DIFF ERROR     6    4    0.2245498948E-08    0.1500000053E-06
     PET DIFF ERROR     6    5    0.2245498899E-08    0.1500000053E-06
     PET DIFF ERROR     7    4    0.2245498963E-08    0.1500000053E-06
     PET DIFF ERROR     7    5    0.2245498963E-08    0.1500000053E-06
     PET DIFF ERROR     8    4    0.2245498913E-08    0.1500000053E-06
     PET DIFF ERROR     8    5    0.2245498938E-08    0.1500000053E-06
 
 SOLVING FOR HEAD 
                                                   Max.-Head-Change                         Max.-Flux-Residual
  Residual-Control   Outer-Iter.   Inner-Iter.     Column Row Layer    Maximum-Head-Change  Column Row Layer    Maximum-Flux-Residual          L2-NORM 
          0                 1           2             5    8     1       0.4080446575E+00       5    8    1         0.2201510332E+02      0.4543531368E+02
          0                 2           2             5    8     1       0.1107093892E+00       5    8    1         0.6004125612E+01      0.1061031902E+02
          0                 3           2             5    8     1       0.4937698219E-01       5    8    1         0.2678770453E+01      0.4675447800E+01
          0                 4           2             5    8     1       0.2196321860E-01       5    8    1         0.1191649968E+01      0.2064476153E+01
          0                 5           2             5    8     1       0.9767976075E-02       5    8    1         0.5300432374E+00      0.9117210332E+00
          0                 6           2             5    8     1       0.4343626824E-02       5    8    1         0.2357264303E+00      0.4026657203E+00
          0                 7           2             5    8     1       0.1931264803E-02       5    8    1         0.1048202899E+00      0.1778509992E+00
          0                 8           2             5    8     1       0.8585677269E-03       5    8    1         0.4660408960E-01      0.7855893425E-01
          0                 9           2             5    8     1       0.3816389142E-03       5    8    1         0.2071793526E-01      0.3470253089E-01
          0                10           2             5    8     1       0.1696203581E-03       5    8    1         0.9209045260E-02      0.1533034076E-01
          0                11           1             5    8     1       0.7537934025E-04       5    8    1         0.4092892235E-02      0.6772771718E-02

    ------------------------------------------------
       NWT REQUIRED           11 OUTER ITERATIONS 
       AND A TOTAL OF         21 INNER ITERATIONS.
    ------------------------------------------------

 NO OUTPUT CONTROL FOR STRESS PERIOD   43   TIME STEP   29
 
 SOLVING FOR HEAD 
                                                   Max.-Head-Change                         Max.-Flux-Residual
  Residual-Control   Outer-Iter.   Inner-Iter.     Column Row Layer    Maximum-Head-Change  Column Row Layer    Maximum-Flux-Residual          L2-NORM 
          0                 1           2             4    8     1       0.3886926319E+00       4    8    1         0.2057276429E+02      0.4490006944E+02
          0                 2           2             4    8     1       0.1790866149E+00       4    8    1         0.9488756562E+01      0.2018841285E+02
          0                 3           2             4    8     1       0.8242276997E-01       4    8    1         0.4370858126E+01      0.9109406444E+01
          0                 4           2             4    8     1       0.3789682546E-01       4    8    1         0.2011265077E+01      0.4114857393E+01
          0                 5           2             4    8     1       0.1740892625E-01       4    8    1         0.9245868994E+00      0.1860097381E+01
          0                 6           2             4    8     1       0.7990858717E-02       4    8    1         0.4246684150E+00      0.8414019246E+00
          0                 7           2             4    8     1       0.3665216597E-02       4    8    1         0.1948993764E+00      0.3808196975E+00
          0                 8           2             4    8     1       0.1680039249E-02       4    8    1         0.8938431201E-01      0.1724456349E+00
          0                 9           2             4    8     1       0.7696239669E-03       4    8    1         0.4096667607E-01      0.7812205661E-01
          0                10           2             4    8     1       0.3523710328E-03       4    8    1         0.1876480315E-01      0.3540455482E-01
                                                   Max.-Head-Change                         Max.-Flux-Residual
  Residual-Control   Outer-Iter.   Inner-Iter.     Column Row Layer    Maximum-Head-Change  Column Row Layer    Maximum-Flux-Residual          L2-NORM 
          0                11           2             4    8     1       0.1612519575E-03       4    8    1         0.8590605639E-02      0.1605044149E-01
          0                12           1             4    8     1       0.7375838571E-04       4    8    1         0.3930885154E-02      0.7278440085E-02

    ------------------------------------------------
       NWT REQUIRED           12 OUTER ITERATIONS 
       AND A TOTAL OF         23 INNER ITERATIONS.
    ------------------------------------------------

 NO OUTPUT CONTROL FOR STRESS PERIOD   43   TIME STEP   30



 STREAM LISTING     PERIOD     43   STEP       30

 LAYER ROW COL. STREAM  RCH.  FLOW INTO     FLOW TO   FLOW OUT OF   OVRLND.     DIRECT     STREAM       STREAM     STREAM     STREAM   STREAMBED  STREAMBED
                SEG.NO.  NO.  STRM. RCH.    AQUIFER    STRM. RCH.    RUNOFF     PRECIP       ET          HEAD       DEPTH      WIDTH   CONDCTNC.   GRADIENT

   1    1    1     1     1    2.1749E+01  2.2965E-01   2.1520E+01  0.000E+00  0.000E+00  0.000E+00  1.09418E+03  1.128E+00  1.236E+01  5.564E-02  1.376E+00
   1    2    2     1     2    2.1520E+01  3.5497E-01   2.1165E+01  0.000E+00  0.000E+00  0.000E+00  1.08918E+03  1.123E+00  1.230E+01  8.610E-02  1.374E+00
   1    3    3     1     3    2.1165E+01  3.0207E-01   2.0863E+01  0.000E+00  0.000E+00  0.000E+00  1.08354E+03  1.117E+00  1.223E+01  7.337E-02  1.372E+00
   1    3    4     1     4    2.0863E+01  2.7761E-01   2.0585E+01  0.000E+00  0.000E+00  0.000E+00  1.07852E+03  1.112E+00  1.216E+01  6.751E-02  1.371E+00
   1    4    5     2     1    1.8585E+01  3.1244E-01   1.8273E+01  0.000E+00  0.000E+00  0.000E+00  1.07294E+03  1.006E+00  1.200E+01  7.800E-02  1.335E+00
   1    5    6     2     2    1.8273E+01  2.3979E-01   1.8033E+01  0.000E+00  0.000E+00  0.000E+00  1.06751E+03  9.966E-01  1.200E+01  6.000E-02  1.332E+00
   1    6    6     2     3    1.8033E+01  2.3932E-01   1.7793E+01  0.000E+00  0.000E+00  0.000E+00  1.06278E+03  9.887E-01  1.200E+01  6.000E-02  1.330E+00
   1    7    6     2     4    1.7793E+01  2.3884E-01   1.7555E+01  0.000E+00  0.000E+00  0.000E+00  1.05806E+03  9.807E-01  1.200E+01  6.000E-02  1.327E+00
   1    8    6     2     5    1.7555E+01  2.3837E-01   1.7316E+01  0.000E+00  0.000E+00  0.000E+00  1.05333E+03  9.728E-01  1.200E+01  6.000E-02  1.324E+00
   1    3    5     3     1    2.0000E+00  2.8252E-01   1.7175E+00  0.000E+00  0.000E+00  0.000E+00  1.07555E+03  1.909E+00  9.636E+00  7.227E-02  1.955E+00
   1    3    6     3     2    1.7175E+00  2.4905E-01   1.4684E+00  0.000E+00  0.000E+00  0.000E+00  1.07264E+03  1.727E+00  8.909E+00  6.682E-02  1.864E+00
   1    3    7     3     3    1.4684E+00  1.9718E-01   1.2712E+00  0.000E+00  0.000E+00  0.000E+00  1.06987E+03  1.555E+00  8.218E+00  5.547E-02  1.777E+00
   1    4    8     3     4    1.2712E+00  2.2567E-01   1.0456E+00  0.000E+00  0.000E+00  0.000E+00  1.06682E+03  1.364E+00  7.455E+00  6.709E-02  1.682E+00
   1    5    8     3     5    1.0456E+00  1.5790E-01   8.8768E-01  0.000E+00  0.000E+00  0.000E+00  1.06362E+03  1.164E+00  6.655E+00  4.991E-02  1.582E+00
   1    6    8     3     6    8.8768E-01  5.5980E-02   8.3170E-01  0.000E+00  0.000E+00  0.000E+00  1.06158E+03  1.036E+00  6.145E+00  1.844E-02  1.518E+00
   1    5   10     4     1    1.0000E+01  9.0919E-02   9.9091E+00  0.000E+00  0.000E+00  0.000E+00  1.07836E+03  6.368E-01  1.000E+01  2.500E-02  1.212E+00
   1    5    9     4     2    9.9091E+00  1.8158E-01   9.7275E+00  0.000E+00  0.000E+00  0.000E+00  1.07154E+03  6.315E-01  1.000E+01  5.000E-02  1.211E+00
   1    6    8     4     3    9.7275E+00  1.2689E-01   9.6006E+00  0.000E+00  0.000E+00  0.000E+00  1.06381E+03  6.256E-01  1.000E+01  3.500E-02  1.209E+00
   1    6    8     5     1    1.0432E+01  2.2686E-01   1.0205E+01  0.000E+00  0.000E+00  0.000E+00  1.05868E+03  6.790E-01  1.542E+01  6.166E-02  1.226E+00
   1    7    7     5     2    1.0205E+01  2.7894E-01   9.9265E+00  0.000E+00  0.000E+00  0.000E+00  1.05417E+03  6.732E-01  1.519E+01  7.594E-02  1.224E+00
   1    8    7     5     3    9.9265E+00  1.9221E-01   9.7343E+00  0.000E+00  0.000E+00  0.000E+00  1.04992E+03  6.676E-01  1.497E+01  5.241E-02  1.223E+00
   1    8    6     5     4    9.7343E+00  1.3577E-01   9.5985E+00  0.000E+00  0.000E+00  0.000E+00  1.04691E+03  6.637E-01  1.482E+01  3.706E-02  1.221E+00
   1    9    6     6     1    2.6915E+01  2.5636E-01   2.6658E+01  0.000E+00  0.000E+00  0.000E+00  1.04400E+03  1.273E+00  1.200E+01  6.000E-02  1.424E+00
   1   10    7     6     2    2.6658E+01  2.5592E-01   2.6403E+01  0.000E+00  0.000E+00  0.000E+00  1.03945E+03  1.265E+00  1.200E+01  6.000E-02  1.422E+00
   1   11    7     6     3    2.6403E+01  2.5548E-01   2.6147E+01  0.000E+00  0.000E+00  0.000E+00  1.03489E+03  1.258E+00  1.200E+01  6.000E-02  1.419E+00
   1   12    7     6     4    2.6147E+01  2.5504E-01   2.5892E+01  0.000E+00  0.000E+00  0.000E+00  1.03034E+03  1.251E+00  1.200E+01  6.000E-02  1.417E+00
   1   13    7     6     5    2.5892E+01  2.1244E-02   2.5871E+01  0.000E+00  0.000E+00  0.000E+00  1.02716E+03  1.247E+00  1.200E+01  2.400E-02  2.951E-01
   1   14    9     7     1    1.5000E+02  1.4277E+00   1.4857E+02  0.000E+00  0.000E+00  0.000E+00  1.03987E+03  2.287E+00  5.529E+01  5.593E-01  8.509E-01
   1   13    8     7     2    1.4857E+02  2.1100E+00   1.4646E+02  0.000E+00  0.000E+00  0.000E+00  1.03478E+03  2.278E+00  5.525E+01  6.147E-01  1.144E+00
   1   13    7     7     3    1.4646E+02  1.9072E+00   1.4456E+02  0.000E+00  0.000E+00  0.000E+00  1.02969E+03  2.267E+00  5.520E+01  5.583E-01  1.139E+00
   1   13    6     8     1    1.7043E+02  1.3281E+00   1.6910E+02  0.000E+00  0.000E+00  0.000E+00  1.02483E+03  2.951E+00  4.278E+01  4.360E-01  1.015E+00
   1   13    5     8     2    1.6910E+02  5.2861E-01   1.6857E+02  0.000E+00  0.000E+00  0.000E+00  1.01857E+03  2.945E+00  4.270E+01  4.351E-01  4.050E-01
   1   13    4     8     3    1.6857E+02 -1.1744E+00   1.6974E+02  0.000E+00  0.000E+00  0.000E+00  1.01232E+03  2.947E+00  4.273E+01  4.354E+00 -8.991E-02
   1   13    3     8     4    1.6974E+02 -2.9393E+00   1.7268E+02  0.000E+00  0.000E+00  0.000E+00  1.00609E+03  2.960E+00  4.292E+01  4.374E+00 -2.240E-01
   1   13    2     8     5    1.7268E+02 -2.2546E+00   1.7494E+02  0.000E+00  0.000E+00  0.000E+00  9.99852E+02  2.977E+00  4.316E+01  4.399E+00 -1.709E-01
   1   13    1     8     6    1.7494E+02 -1.8479E+00   1.7679E+02  0.000E+00  0.000E+00  0.000E+00  9.94865E+02  2.990E+00  4.335E+01  2.651E+00 -2.324E-01
   1    8    6     9     1    0.0000E+00  0.0000E+00   0.0000E+00  0.000E+00  0.000E+00  0.000E+00  1.07875E+03  0.000E+00  4.000E+00  0.000E+00  1.000E+00
   1    8    5     9     2    0.0000E+00  0.0000E+00   0.0000E+00  0.000E+00  0.000E+00  0.000E+00  1.07825E+03  0.000E+00  4.000E+00  0.000E+00  1.000E+00





UNSATURATED ZONE PACKAGE VOLUMETRIC BUDGET FOR  TIME STEP    30 STRESS PERIOD   43
  ------------------------------------------------------------------------------



     CUMULATIVE VOLUMES      L**3       RATES FOR THIS TIME STEP      L**3/T
     ------------------                 ------------------------

           IN:                                      IN:
           ---                                      ---
        INFILTRATION = 11048033204.1544          INFILTRATION =           0.8475

          OUT:                                     OUT:
          ----                                     ----
              UZF ET =  1379229153.6950                UZF ET =          23.4810
        UZF RECHARGE =  8881931113.9763          UZF RECHARGE =         200.7628

            IN - OUT =   786872936.4831              IN - OUT =        -223.3963

          STORAGE:                                 STORAGE:
          --------                                 --------
      STORAGE CHANGE =   788122269.2038        STORAGE CHANGE =        -223.4131

 PERCENT DISCREPANCY IS DIFFERENCE BETWEEN IN-OUT MINUS CHANGE IN STORAGE
 DIVIDED BY THE AVERAGE OF IN AND OUT TIMES 100

 PERCENT DISCREPANCY =          -0.00     PERCENT DISCREPANCY =           0.01






1
  VOLUMETRIC BUDGET FOR AGRICULTURAL FIELDS AT  END OF TIME STEP   30, STRESS PERIOD  43
  ------------------------------------------------------------------------------

     CUMULATIVE VOLUMES      L**3       RATES FOR THIS TIME STEP      L**3/T
     ------------------                 ------------------------

           IN:                                      IN:
           ---                                      ---
               AG WELLS  = 10448903168.0000                 AG WELLS  =           0.0000
      DIVERSION SEGMENTS =   505466464.0000        DIVERSION SEGMENTS =           0.0000
           GW IRRIGATION =           0.0000             GW IRRIGATION =           0.0000
           SW IRRIGATION =           0.0000             SW IRRIGATION =           0.0000
        SYSTEM LOSSES GW =           0.0000          SYSTEM LOSSES GW =           0.0000
        SYSTEM LOSSES SW =           0.0000          SYSTEM LOSSES SW =           0.0000

                TOTAL IN = 10954370048.0000                  TOTAL IN =           0.0000

          OUT:                                     OUT:
          ----                                     ----
               AG WELLS  =           0.0000                 AG WELLS  =           0.0000
      DIVERSION SEGMENTS =           0.0000        DIVERSION SEGMENTS =           0.0000
           GW IRRIGATION = 10448903168.0000             GW IRRIGATION =           0.0000
           SW IRRIGATION =   505475840.0000             SW IRRIGATION =           0.0000
        SYSTEM LOSSES GW =           0.0000          SYSTEM LOSSES GW =           0.0000
        SYSTEM LOSSES SW =           0.0000          SYSTEM LOSSES SW =           0.0000

               TOTAL OUT = 10954379264.0000                 TOTAL OUT =           0.0000

                IN - OUT =       -9216.0000                  IN - OUT =           0.0000

     PERCENT DISCREPANCY =          -0.00         PERCENT DISCREPANCY =           0.00



1
  VOLUMETRIC BUDGET FOR ENTIRE MODEL AT END OF TIME STEP   30, STRESS PERIOD  43
  ------------------------------------------------------------------------------

     CUMULATIVE VOLUMES      L**3       RATES FOR THIS TIME STEP      L**3/T
     ------------------                 ------------------------

           IN:                                      IN:
           ---                                      ---
             STORAGE     =  9335832576.0000               STORAGE     =          16.4178
       CONSTANT HEAD     =           0.0000         CONSTANT HEAD     =           0.0000
     HEAD DEP BOUNDS     =    32009860.0000       HEAD DEP BOUNDS     =           0.2920
      STREAM LEAKAGE     =  1368597376.0000        STREAM LEAKAGE     =          13.1802
        UZF RECHARGE     =  8881932288.0000          UZF RECHARGE     =         200.7628
               GW ET     =           0.0000                 GW ET     =           0.0000
     SURFACE LEAKAGE     =           0.0000       SURFACE LEAKAGE     =           0.0000
           AG WELLS      =           0.0000             AG WELLS      =           0.0000

                TOTAL IN = 19618373632.0000                  TOTAL IN =         230.6529

          OUT:                                     OUT:
          ----                                     ----
             STORAGE     =  8107621376.0000               STORAGE     =         222.1414
       CONSTANT HEAD     =           0.0000         CONSTANT HEAD     =           0.0000
     HEAD DEP BOUNDS     =    31815996.0000       HEAD DEP BOUNDS     =           0.2874
      STREAM LEAKAGE     =  1029882240.0000        STREAM LEAKAGE     =           8.2162
        UZF RECHARGE     =           0.0000          UZF RECHARGE     =           0.0000
               GW ET     =           0.0000                 GW ET     =           0.0000
     SURFACE LEAKAGE     =           0.0000       SURFACE LEAKAGE     =           0.0000
           AG WELLS      = 10448903168.0000             AG WELLS      =           0.0000

               TOTAL OUT = 19618222080.0000                 TOTAL OUT =         230.6450

                IN - OUT =      151552.0000                  IN - OUT =       7.8735E-03

     PERCENT DISCREPANCY =           0.00         PERCENT DISCREPANCY =           0.00






         TIME SUMMARY AT END OF TIME STEP   30 IN STRESS PERIOD   43
                    SECONDS     MINUTES      HOURS       DAYS        YEARS
                    -----------------------------------------------------------
   TIME STEP LENGTH  87667.      1461.1      24.352      1.0147     2.77799E-03
 STRESS PERIOD TIME 2.63000E+06  43833.      730.56      30.440     8.33397E-02
         TOTAL TIME 1.10545E+08 1.84242E+06  30707.      1279.5      3.5030    
1
1
                            STRESS PERIOD NO.   44, LENGTH =   2630000.    
                            -----------------------------------------------

                              NUMBER OF TIME STEPS =    30

                               MULTIPLIER FOR DELT =     1.000

                            INITIAL TIME STEP SIZE =   87666.66    

 REUSING NON-PARAMETER GHB CELLS FROM LAST STRESS PERIOD

      2 GHB CELLS

 REUSING STREAM SEGMENT DATA FROM LAST STRESS PERIOD



            AREAL INFILTRATION RATE
 READING ON UNIT   19 WITH FORMAT: (FREE)              

            1           2           3           4           5           6           7           8           9          10
 ........................................................................................................................
   1   1.0000E-10  2.0000E-10   0.000       0.000       0.000       0.000       0.000       0.000       0.000       0.000    
   2   2.0000E-10  1.0000E-10  2.0000E-10   0.000       0.000      8.0000E-10  8.0000E-10  5.0000E-10   0.000       0.000    
   3    0.000      5.0000E-10  1.0000E-10  1.0000E-10  8.0000E-10  8.0000E-10  5.0000E-10  5.0000E-10   0.000       0.000    
   4   8.0000E-10  5.0000E-10  1.0000E-10  1.0000E-10  1.0000E-10  1.0000E-10  1.0000E-10  1.0000E-10  2.0000E-10   0.000    
   5   8.0000E-10  5.0000E-10  1.0000E-10  1.0000E-10  1.0000E-10  1.0000E-10  1.0000E-10  1.0000E-10  1.0000E-10  1.0000E-10
   6   8.0000E-10  5.0000E-10  5.0000E-10  2.0000E-10  2.0000E-10  1.0000E-10  1.0000E-10  1.0000E-10  1.0000E-10  5.0000E-10
   7   8.0000E-10  5.0000E-10  5.0000E-10  2.0000E-10  2.0000E-10  1.0000E-10  1.0000E-10  2.0000E-10  2.0000E-10   0.000    
   8    0.000      5.0000E-10  5.0000E-10  2.0000E-10  2.0000E-10  1.0000E-10  1.0000E-10  2.0000E-10  5.0000E-10   0.000    
   9    0.000      5.0000E-10  5.0000E-10  2.0000E-10  2.0000E-10  1.0000E-10  1.0000E-10  2.0000E-10  5.0000E-10   0.000    
  10    0.000      5.0000E-10  5.0000E-10  2.0000E-10  2.0000E-10  1.0000E-10  1.0000E-10  2.0000E-10  5.0000E-10  8.0000E-10
  11    0.000      1.0000E-10  1.0000E-10  1.0000E-10  1.0000E-10  1.0000E-10  1.0000E-10  2.0000E-10  5.0000E-10   0.000    
  12   1.0000E-10  1.0000E-10  1.0000E-10  1.0000E-10  1.0000E-10  1.0000E-10  1.0000E-10  1.0000E-10  2.0000E-10   0.000    
  13   1.0000E-10  1.0000E-10  2.0000E-10  2.0000E-10  2.0000E-10  2.0000E-10  2.0000E-10  1.0000E-10  1.0000E-10   0.000    
  14    0.000      2.0000E-10  5.0000E-10  5.0000E-10  5.0000E-10  5.0000E-10  5.0000E-10  2.0000E-10  1.0000E-10   0.000    
  15    0.000       0.000      8.0000E-10  8.0000E-10  8.0000E-10  8.0000E-10   0.000       0.000       0.000       0.000    

                  ET RATE =  4.000000E-07

 USING ET EXTINCTION DEPTH FROM PREVIOUS STRESS PERIOD. CURRENT PERIOD IS:      44

 USING EXTINCTION WATER CONTENT FROM PREVIOUS STRESS PERIOD. CURRENT PERIOD IS:      44

 USING AIR ENTRY PRESSURE FROM PREVIOUS STRESS PERIOD. CURRENT PERIOD IS:      44

 USING ROOT PRESSURE HEAD FROM PREVIOUS STRESS PERIOD. CURRENT PERIOD IS:      44

 USING ROOT ACTIVITY FROM PREVIOUS STRESS PERIOD. CURRENT PERIOD IS:      44

 PROCESSING AG STRESS PERIOD DATA

 READING AG STRESS PERIOD DATA

 READING IRRIGATION SEGMENT

 READING IRRIGATION WELL

 READING SUPPLEMENTAL WELL

 END PROCESSING AG STRESS PERIOD DATA OPTIONS
 
 SOLVING FOR HEAD 
                                                   Max.-Head-Change                         Max.-Flux-Residual
  Residual-Control   Outer-Iter.   Inner-Iter.     Column Row Layer    Maximum-Head-Change  Column Row Layer    Maximum-Flux-Residual          L2-NORM 
          0                 1           2             4    7     1       0.4153172754E+00       4    7    1         0.2179392401E+02      0.4753658713E+02
          0                 2           2             4    6     1      -0.1708395881E+01       4    6    1        -0.9303249998E+02      0.2236553005E+03
          0                 3           2             5    7     1      -0.4385128132E+00       5    7    1        -0.2387576329E+02      0.5232496540E+02
          0                 4           2             5    7     1       0.2986309085E-01       5    7    1         0.1671393870E+01      0.3663077412E+01
          0                 5           2             5    7     1      -0.1188572962E-02       5    7    1        -0.6837700819E-01      0.1498550641E+00
          0                 6           1             5    7     1       0.1466650390E-04       5    7    1         0.8671897151E-03      0.1900654359E-02

    ------------------------------------------------
       NWT REQUIRED            6 OUTER ITERATIONS 
       AND A TOTAL OF         11 INNER ITERATIONS.
    ------------------------------------------------

 NO OUTPUT CONTROL FOR STRESS PERIOD   44   TIME STEP    1
 
 SOLVING FOR HEAD 
                                                   Max.-Head-Change                         Max.-Flux-Residual
  Residual-Control   Outer-Iter.   Inner-Iter.     Column Row Layer    Maximum-Head-Change  Column Row Layer    Maximum-Flux-Residual          L2-NORM 
          0                 1           2             4    7     1       0.9330808133E-01       4    7    1         0.4910389028E+01      0.1087288758E+02
          0                 2           2             4    7     1      -0.4094508148E-01       4    7    1        -0.2201086127E+01      0.5240418525E+01
          0                 3           2             4    7     1       0.2410845895E-01       4    7    1         0.1330081731E+01      0.3255371571E+01
          0                 4           2             4    7     1      -0.9593016838E-03       4    7    1        -0.5440054340E-01      0.1338426634E+00
          0                 5           1             4    7     1       0.1182859987E-04       4    7    1         0.6894157036E-03      0.1812881054E-02

    ------------------------------------------------
       NWT REQUIRED            5 OUTER ITERATIONS 
       AND A TOTAL OF          9 INNER ITERATIONS.
    ------------------------------------------------

 NO OUTPUT CONTROL FOR STRESS PERIOD   44   TIME STEP    2
 
 SOLVING FOR HEAD 
                                                   Max.-Head-Change                         Max.-Flux-Residual
  Residual-Control   Outer-Iter.   Inner-Iter.     Column Row Layer    Maximum-Head-Change  Column Row Layer    Maximum-Flux-Residual          L2-NORM 
          0                 1           2             4    7     1       0.2011981305E+00       4    7    1         0.1065187935E+02      0.1953441493E+02
          0                 2           2             5    8     1      -0.1820904314E+01       5    8    1        -0.1003488879E+03      0.2375667761E+03
          0                 3           2             5    8     1       0.1200693558E+00       5    8    1         0.7021694769E+01      0.9698135350E+01
          0                 4           2             4    7     1       0.6096763029E-02       4    7    1         0.3493949351E+00      0.5457125127E+00
          0                 5           2             4    7     1      -0.2426536443E-03       4    7    1        -0.1427460178E-01      0.1919523041E-01
          0                 6           1             4    7     1       0.2994245233E-05       4    7    1         0.1807815943E-03      0.2438380498E-03

    ------------------------------------------------
       NWT REQUIRED            6 OUTER ITERATIONS 
       AND A TOTAL OF         11 INNER ITERATIONS.
    ------------------------------------------------

 NO OUTPUT CONTROL FOR STRESS PERIOD   44   TIME STEP    3
 
 SOLVING FOR HEAD 
                                                   Max.-Head-Change                         Max.-Flux-Residual
  Residual-Control   Outer-Iter.   Inner-Iter.     Column Row Layer    Maximum-Head-Change  Column Row Layer    Maximum-Flux-Residual          L2-NORM 
          0                 1           2             5    6     1       0.1242073314E+00       5    6    1         0.6724683183E+01      0.1558455839E+02
          0                 2           2             5    6     1      -0.4319870391E-01       5    6    1        -0.2382499923E+01      0.5672719225E+01
          0                 3           2             4    7     1       0.2415707299E-01       5    6    1         0.1342781321E+01      0.3284438998E+01
          0                 4           2             4    7     1      -0.9612357608E-03       5    6    1        -0.5491507690E-01      0.1350306625E+00
          0                 5           1             4    7     1       0.1185244828E-04       5    6    1         0.6956095044E-03      0.1826528546E-02

    ------------------------------------------------
       NWT REQUIRED            5 OUTER ITERATIONS 
       AND A TOTAL OF          9 INNER ITERATIONS.
    ------------------------------------------------

 NO OUTPUT CONTROL FOR STRESS PERIOD   44   TIME STEP    4
 
 SOLVING FOR HEAD 
                                                   Max.-Head-Change                         Max.-Flux-Residual
  Residual-Control   Outer-Iter.   Inner-Iter.     Column Row Layer    Maximum-Head-Change  Column Row Layer    Maximum-Flux-Residual          L2-NORM 
          0                 1           2             5    6     1       0.1196032814E+00       5    6    1         0.6469867267E+01      0.1515860472E+02
          0                 2           2             4    7     1      -0.1873391108E+01       5    6    1        -0.1006469792E+03      0.2463492750E+03
          0                 3           2             4    7     1       0.1275513023E+00       5    6    1         0.7043238099E+01      0.1724025739E+02
          0                 4           2             4    7     1      -0.5075480275E-02       5    6    1        -0.2879687421E+00      0.7050891962E+00
          0                 5           1             4    7     1       0.6258271712E-04       4    7    1         0.3646008262E-02      0.8962492543E-02

    ------------------------------------------------
       NWT REQUIRED            5 OUTER ITERATIONS 
       AND A TOTAL OF          9 INNER ITERATIONS.
    ------------------------------------------------

 NO OUTPUT CONTROL FOR STRESS PERIOD   44   TIME STEP    5
 
 SOLVING FOR HEAD 
                                                   Max.-Head-Change                         Max.-Flux-Residual
  Residual-Control   Outer-Iter.   Inner-Iter.     Column Row Layer    Maximum-Head-Change  Column Row Layer    Maximum-Flux-Residual          L2-NORM 
          0                 1           2             5    6     1       0.1656673176E+00       5    6    1         0.8997511080E+01      0.2036988040E+02
          0                 2           2             5    6     1      -0.4723178722E-01       5    6    1        -0.2609773208E+01      0.6092880296E+01
          0                 3           2             4    7     1       0.2065612857E-01       5    6    1         0.1162378581E+01      0.2828644068E+01
          0                 4           2             4    7     1      -0.8219287642E-03       5    6    1        -0.4754146259E-01      0.1162303353E+00
          0                 5           1             4    7     1       0.1013473460E-04       5    6    1         0.6024966981E-03      0.1559047867E-02

    ------------------------------------------------
       NWT REQUIRED            5 OUTER ITERATIONS 
       AND A TOTAL OF          9 INNER ITERATIONS.
    ------------------------------------------------

 NO OUTPUT CONTROL FOR STRESS PERIOD   44   TIME STEP    6
 
 SOLVING FOR HEAD 
                                                   Max.-Head-Change                         Max.-Flux-Residual
  Residual-Control   Outer-Iter.   Inner-Iter.     Column Row Layer    Maximum-Head-Change  Column Row Layer    Maximum-Flux-Residual          L2-NORM 
          0                 1           2             5    8     1       0.1692003155E+01       5    8    1         0.9245946527E+02      0.1063555012E+03
          0                 2           2             5    8     1       0.6633888973E+00       5    8    1         0.3651757242E+02      0.4491354255E+02
          0                 3           2             5    8     1       0.3820532040E+00       5    8    1         0.2102714525E+02      0.2153192176E+02
          0                 4           2             5    8     1       0.2201552813E+00       5    8    1         0.1211049310E+02      0.1240593798E+02
          0                 5           2             5    8     1       0.1269387787E+00       5    8    1         0.6979172068E+01      0.7180651863E+01
          0                 6           2             5    8     1       0.7323655808E-01       5    8    1         0.4024411190E+01      0.4161451224E+01
          0                 7           2             5    8     1       0.4228017861E-01       5    8    1         0.2322034142E+01      0.2414791808E+01
          0                 8           2             5    8     1       0.2442456701E-01       5    8    1         0.1340632724E+01      0.1403064522E+01
          0                 9           2             5    8     1       0.1411898053E-01       5    8    1         0.7745192180E+00      0.8162910115E+00
          0                10           2             5    8     1       0.8167158031E-02       5    8    1         0.4477556988E+00      0.4755381459E+00
                                                   Max.-Head-Change                         Max.-Flux-Residual
  Residual-Control   Outer-Iter.   Inner-Iter.     Column Row Layer    Maximum-Head-Change  Column Row Layer    Maximum-Flux-Residual          L2-NORM 
          0                11           2             5    8     1       0.4727527747E-02       5    8    1         0.2590248320E+00      0.2773956819E+00
          0                12           2             5    8     1       0.2738398994E-02       5    8    1         0.1499468712E+00      0.1620267262E+00
          0                13           2             5    8     1       0.1587312934E-02       5    8    1         0.8686266382E-01      0.9476383610E-01
          0                14           2             5    8     1       0.9207355732E-03       5    8    1         0.5035380129E-01      0.5549602957E-01
          0                15           2             5    8     1       0.5344620242E-03       5    8    1         0.2921043889E-01      0.3254144518E-01
          0                16           2             5    8     1       0.3104638463E-03       5    8    1         0.1695717854E-01      0.1910548046E-01
          0                17           1             5    8     1       0.1804761468E-03       5    8    1         0.9851025492E-02      0.1123089231E-01
          0                18           1             5    8     1       0.1049893358E-03       5    8    1         0.5726957188E-02      0.6609875872E-02
          0                19           1             5    8     1       0.6112076891E-04       5    8    1         0.3331831546E-02      0.3894767163E-02

    ------------------------------------------------
       NWT REQUIRED           19 OUTER ITERATIONS 
       AND A TOTAL OF         35 INNER ITERATIONS.
    ------------------------------------------------

 NO OUTPUT CONTROL FOR STRESS PERIOD   44   TIME STEP    7
 
 SOLVING FOR HEAD 
                                                   Max.-Head-Change                         Max.-Flux-Residual
  Residual-Control   Outer-Iter.   Inner-Iter.     Column Row Layer    Maximum-Head-Change  Column Row Layer    Maximum-Flux-Residual          L2-NORM 
          0                 1           2             5    7     1       0.2086084339E+01       5    6    1         0.1110215305E+03      0.2467770760E+03
          0                 2           2             5    7     1       0.1116124266E+01       5    7    1         0.5908513629E+02      0.1303255590E+03
          0                 3           2             5    7     1       0.6726418017E+00       5    7    1         0.3561546251E+02      0.7848718732E+02
          0                 4           2             5    7     1       0.4053021932E+00       5    7    1         0.2146352990E+02      0.4727108902E+02
          0                 5           2             5    7     1       0.2441803615E+00       5    7    1         0.1293266166E+02      0.2847544349E+02
          0                 6           2             5    7     1       0.1470926530E+00       5    7    1         0.7791344847E+01      0.1715709735E+02
          0                 7           2             5    7     1       0.8859913522E-01       5    7    1         0.4693387929E+01      0.1033977381E+02
          0                 8           2             5    7     1       0.5336233447E-01       5    7    1         0.2826960513E+01      0.6232544193E+01
          0                 9           2             5    7     1       0.3213768422E-01       5    7    1         0.1702632250E+01      0.3757512944E+01
          0                10           2             5    7     1       0.1935421204E-01       5    7    1         0.1025409462E+01      0.2265741281E+01
                                                   Max.-Head-Change                         Max.-Flux-Residual
  Residual-Control   Outer-Iter.   Inner-Iter.     Column Row Layer    Maximum-Head-Change  Column Row Layer    Maximum-Flux-Residual          L2-NORM 
          0                11           2             5    7     1       0.1165530296E-01       5    7    1         0.6175267954E+00      0.1366435541E+01
          0                12           2             4    7     1       0.7105286158E-02       4    7    1         0.3723792129E+00      0.8241981722E+00
          0                13           2             4    7     1       0.4332017507E-02       4    7    1         0.2271142137E+00      0.4972019866E+00
          0                14           2             4    7     1       0.2640162472E-02       4    7    1         0.1384612761E+00      0.2999771587E+00
          0                15           2             4    7     1       0.1608460455E-02       4    7    1         0.8438111205E-01      0.1810061810E+00
          0                16           2             4    7     1       0.9795723787E-03       4    7    1         0.5140465824E-01      0.1092306705E+00
          0                17           2             4    7     1       0.5963701296E-03       4    7    1         0.3130452397E-01      0.6592318250E-01
          0                18           2             4    7     1       0.3629567994E-03       4    7    1         0.1905749814E-01      0.3978971052E-01
          0                19           2             4    7     1       0.2208309237E-03       4    7    1         0.1159805791E-01      0.2401814080E-01
          0                20           2             4    7     1       0.1343187544E-03       4    7    1         0.7056208765E-02      0.1449910390E-01
          0                21           1             4    7     1       0.8167532802E-04       4    7    1         0.4291708414E-02      0.8753334166E-02

    ------------------------------------------------
       NWT REQUIRED           21 OUTER ITERATIONS 
       AND A TOTAL OF         41 INNER ITERATIONS.
    ------------------------------------------------

 NO OUTPUT CONTROL FOR STRESS PERIOD   44   TIME STEP    8
 
 SOLVING FOR HEAD 
                                                   Max.-Head-Change                         Max.-Flux-Residual
  Residual-Control   Outer-Iter.   Inner-Iter.     Column Row Layer    Maximum-Head-Change  Column Row Layer    Maximum-Flux-Residual          L2-NORM 
          0                 1           2             4    7     1       0.2086786464E+01       4    6    1         0.1098582687E+03      0.2553715356E+03
          0                 2           2             4    7     1       0.9446803227E+00       4    7    1         0.4941402908E+02      0.1111005141E+03
          0                 3           2             4    7     1       0.5769931746E+00       4    7    1         0.3020491693E+02      0.6365646831E+02
          0                 4           2             4    7     1       0.3518903558E+00       4    7    1         0.1844605192E+02      0.3799730773E+02
          0                 5           2             4    7     1       0.2143983849E+00       4    7    1         0.1124731512E+02      0.2279333314E+02
          0                 6           2             4    7     1       0.1305195121E+00       4    7    1         0.6851902212E+01      0.1368170435E+02
          0                 7           2             4    7     1       0.7939436118E-01       4    7    1         0.4170768491E+01      0.8212984912E+01
          0                 8           2             4    7     1       0.4826036121E-01       4    7    1         0.2536784498E+01      0.4930623202E+01
          0                 9           2             4    7     1       0.2931580138E-01       4    7    1         0.1541847115E+01      0.2960455442E+01
          0                10           2             4    7     1       0.1779690310E-01       4    7    1         0.9365098855E+00      0.1777743470E+01
                                                   Max.-Head-Change                         Max.-Flux-Residual
  Residual-Control   Outer-Iter.   Inner-Iter.     Column Row Layer    Maximum-Head-Change  Column Row Layer    Maximum-Flux-Residual          L2-NORM 
          0                11           2             4    7     1       0.1079786294E-01       4    7    1         0.5684832684E+00      0.1067651693E+01
          0                12           2             4    7     1       0.6547860719E-02       4    7    1         0.3448865869E+00      0.6412627225E+00
          0                13           2             4    7     1       0.3968673004E-02       4    7    1         0.2091248063E+00      0.3851983197E+00
          0                14           2             4    7     1       0.2404308106E-02       4    7    1         0.1267422035E+00      0.2314041159E+00
          0                15           2             4    7     1       0.1455952776E-02       4    7    1         0.7677819404E-01      0.1390249261E+00
          0                16           2             4    7     1       0.8813109779E-03       4    7    1         0.4649098579E-01      0.8353068384E-01
          0                17           2             4    7     1       0.5332700280E-03       4    7    1         0.2814012709E-01      0.5019128444E-01
          0                18           2             4    7     1       0.3225609378E-03       4    7    1         0.1702632974E-01      0.3016038501E-01
          0                19           2             4    7     1       0.1950440358E-03       4    7    1         0.1029826565E-01      0.1812463928E-01
          0                20           1             4    7     1       0.1179013719E-03       4    7    1         0.6226798287E-02      0.1089240086E-01
          0                21           1             4    7     1       0.7124897784E-04       4    7    1         0.3763847661E-02      0.6546326044E-02

    ------------------------------------------------
       NWT REQUIRED           21 OUTER ITERATIONS 
       AND A TOTAL OF         40 INNER ITERATIONS.
    ------------------------------------------------

 NO OUTPUT CONTROL FOR STRESS PERIOD   44   TIME STEP    9
 
 SOLVING FOR HEAD 
                                                   Max.-Head-Change                         Max.-Flux-Residual
  Residual-Control   Outer-Iter.   Inner-Iter.     Column Row Layer    Maximum-Head-Change  Column Row Layer    Maximum-Flux-Residual          L2-NORM 
          0                 1           2             4    7     1       0.2048102115E+01       4    7    1         0.1072362347E+03      0.2276148807E+03
          0                 2           2             4    7     1       0.1101326719E+01       4    7    1         0.5801308606E+02      0.1123111189E+03
          0                 3           2             4    7     1       0.6622093822E+00       4    7    1         0.3517149851E+02      0.6119724776E+02
          0                 4           2             4    7     1       0.3947216929E+00       4    7    1         0.2111958847E+02      0.3437105104E+02
          0                 5           2             4    7     1       0.2344117375E+00       4    7    1         0.1257344226E+02      0.2026700289E+02
          0                 6           2             4    7     1       0.1390437760E+00       4    7    1         0.7463886701E+01      0.1202318346E+02
          0                 7           2             4    7     1       0.8245016430E-01       4    7    1         0.4426720451E+01      0.7137556906E+01
          0                 8           2             4    6     1       0.4918917668E-01       4    7    1         0.2624883607E+01      0.4237853538E+01
          0                 9           2             4    6     1       0.2947865379E-01       4    6    1         0.1568470544E+01      0.2516504380E+01
          0                10           2             4    6     1       0.1765797433E-01       4    6    1         0.9399051230E+00      0.1494537341E+01
                                                   Max.-Head-Change                         Max.-Flux-Residual
  Residual-Control   Outer-Iter.   Inner-Iter.     Column Row Layer    Maximum-Head-Change  Column Row Layer    Maximum-Flux-Residual          L2-NORM 
          0                11           2             4    6     1       0.1057263351E-01       4    6    1         0.5629744240E+00      0.8877106910E+00
          0                12           2             4    6     1       0.6327721090E-02       4    6    1         0.3370576359E+00      0.5273365892E+00
          0                13           2             4    6     1       0.3785690414E-02       4    6    1         0.2017173382E+00      0.3132937348E+00
          0                14           2             4    6     1       0.2264056809E-02       4    6    1         0.1206750533E+00      0.1861480420E+00
          0                15           2             4    6     1       0.1353580267E-02       4    6    1         0.7216684481E-01      0.1106124645E+00
          0                16           2             4    6     1       0.8089924072E-03       4    6    1         0.4314334326E-01      0.6573318976E-01
          0                17           2             4    6     1       0.4833672306E-03       4    6    1         0.2578427389E-01      0.3906581904E-01
          0                18           2             4    6     1       0.2887289077E-03       4    6    1         0.1540527829E-01      0.2321868485E-01
          0                19           2             4    6     1       0.1724213543E-03       4    6    1         0.9201648025E-02      0.1380078924E-01
          0                20           1             4    6     1       0.1029405500E-03       4    6    1         0.5494781808E-02      0.8203388810E-02
          0                21           1             4    6     1       0.6144448801E-04       4    6    1         0.3280430690E-02      0.4876445987E-02

    ------------------------------------------------
       NWT REQUIRED           21 OUTER ITERATIONS 
       AND A TOTAL OF         40 INNER ITERATIONS.
    ------------------------------------------------

 NO OUTPUT CONTROL FOR STRESS PERIOD   44   TIME STEP   10
 
 SOLVING FOR HEAD 
                                                   Max.-Head-Change                         Max.-Flux-Residual
  Residual-Control   Outer-Iter.   Inner-Iter.     Column Row Layer    Maximum-Head-Change  Column Row Layer    Maximum-Flux-Residual          L2-NORM 
          0                 1           2             4    6     1       0.1833301112E+01       4    6    1         0.9938130769E+02      0.1360421510E+03
          0                 2           2             5    7     1      -0.1894563163E+01       5    7    1        -0.1005530744E+03      0.2135448785E+03
          0                 3           2             4    6     1      -0.4485166012E+00       4    6    1        -0.2479582356E+02      0.4656746333E+02
          0                 4           2             4    6     1      -0.2681919670E+00       4    6    1        -0.1495286398E+02      0.1673873047E+02
          0                 5           2             4    6     1      -0.1594658107E+00       4    6    1        -0.8930196558E+01      0.9102845589E+01
          0                 6           2             4    6     1      -0.9466734235E-01       4    6    1        -0.5307741075E+01      0.5326430158E+01
          0                 7           2             4    6     1      -0.5616520697E-01       4    6    1        -0.3150429258E+01      0.3152887540E+01
          0                 8           2             4    6     1      -0.3331407570E-01       4    6    1        -0.1868979736E+01      0.1869448616E+01
          0                 9           2             4    6     1      -0.1975806170E-01       4    6    1        -0.1108529933E+01      0.1108672085E+01
          0                10           2             4    6     1      -0.1171768989E-01       4    6    1        -0.6574348316E+00      0.6574961191E+00
                                                   Max.-Head-Change                         Max.-Flux-Residual
  Residual-Control   Outer-Iter.   Inner-Iter.     Column Row Layer    Maximum-Head-Change  Column Row Layer    Maximum-Flux-Residual          L2-NORM 
          0                11           2             4    6     1      -0.6949132589E-02       4    6    1        -0.3898895851E+00      0.3899213364E+00
          0                12           2             4    6     1      -0.4121108000E-02       4    6    1        -0.2312184921E+00      0.2312363137E+00
          0                13           2             4    6     1      -0.2443957781E-02       4    6    1        -0.1371193509E+00      0.1371296884E+00
          0                14           2             4    6     1      -0.1449340026E-02       4    6    1        -0.8131514406E-01      0.8132122040E-01
          0                15           2             4    6     1      -0.8594962272E-03       4    6    1        -0.4822154214E-01      0.4822513280E-01
          0                16           2             4    6     1      -0.5097002471E-03       4    6    1        -0.2859617179E-01      0.2859829811E-01
          0                17           2             4    6     1      -0.3022615612E-03       4    6    1        -0.1695789337E-01      0.1695915361E-01
          0                18           2             4    6     1      -0.1792454807E-03       4    6    1        -0.1005618192E-01      0.1005692911E-01
          0                19           1             4    6     1      -0.1062944836E-03       4    6    1        -0.5963367350E-02      0.5963810441E-02
          0                20           1             4    6     1      -0.6303335935E-04       4    6    1        -0.3536284724E-02      0.3536547526E-02

    ------------------------------------------------
       NWT REQUIRED           20 OUTER ITERATIONS 
       AND A TOTAL OF         38 INNER ITERATIONS.
    ------------------------------------------------

 NO OUTPUT CONTROL FOR STRESS PERIOD   44   TIME STEP   11
 
 SOLVING FOR HEAD 
                                                   Max.-Head-Change                         Max.-Flux-Residual
  Residual-Control   Outer-Iter.   Inner-Iter.     Column Row Layer    Maximum-Head-Change  Column Row Layer    Maximum-Flux-Residual          L2-NORM 
          0                 1           2             4    8     1       0.9527675964E+00       4    8    1         0.5160580685E+02      0.7289100190E+02
          0                 2           2             5    7     1       0.3409690261E+00       5    7    1         0.1874028348E+02      0.2337869880E+02
          0                 3           2             5    7     1       0.1473372503E+00       5    7    1         0.8002245255E+01      0.1105289260E+02
          0                 4           2             4    7     1       0.6803401656E-01       4    7    1         0.3664025052E+01      0.4437434569E+01
          0                 5           2             4    7     1       0.3991886662E-01       4    7    1         0.2164787072E+01      0.2400589658E+01
          0                 6           2             4    7     1       0.2333663418E-01       4    7    1         0.1268696162E+01      0.1384999006E+01
          0                 7           2             4    7     1       0.1362447168E-01       4    7    1         0.7413667760E+00      0.8056569599E+00
          0                 8           2             4    7     1       0.7950400464E-02       4    7    1         0.4327601850E+00      0.4689997327E+00
          0                 9           2             4    7     1       0.4638608461E-02       4    7    1         0.2525177506E+00      0.2729485876E+00
          0                10           2             4    7     1       0.2706176201E-02       4    7    1         0.1473271575E+00      0.1588582802E+00
                                                   Max.-Head-Change                         Max.-Flux-Residual
  Residual-Control   Outer-Iter.   Inner-Iter.     Column Row Layer    Maximum-Head-Change  Column Row Layer    Maximum-Flux-Residual          L2-NORM 
          0                11           2             4    7     1       0.1578740537E-02       4    7    1         0.8595028702E-01      0.9246043849E-01
          0                12           2             4    7     1       0.9209978635E-03       4    7    1         0.5014185008E-01      0.5381782570E-01
          0                13           2             4    7     1       0.5372818729E-03       4    7    1         0.2925144619E-01      0.3132728369E-01
          0                14           2             4    7     1       0.3134313388E-03       4    7    1         0.1706437270E-01      0.1823669172E-01
          0                15           1             4    7     1       0.1828435680E-03       4    7    1         0.9954743823E-02      0.1061685034E-01
          0                16           1             4    7     1       0.1066630975E-03       4    7    1         0.5807202022E-02      0.6181174251E-02
          0                17           1             4    7     1       0.6222229459E-04       4    7    1         0.3387669547E-02      0.3598911788E-02

    ------------------------------------------------
       NWT REQUIRED           17 OUTER ITERATIONS 
       AND A TOTAL OF         31 INNER ITERATIONS.
    ------------------------------------------------

 NO OUTPUT CONTROL FOR STRESS PERIOD   44   TIME STEP   12
 
 SOLVING FOR HEAD 
                                                   Max.-Head-Change                         Max.-Flux-Residual
  Residual-Control   Outer-Iter.   Inner-Iter.     Column Row Layer    Maximum-Head-Change  Column Row Layer    Maximum-Flux-Residual          L2-NORM 
          0                 1           2             5    8     1       0.1491295594E+01       5    8    1         0.8209779691E+02      0.1226000624E+03
          0                 2           2             5    7     1      -0.1874972831E+01       5    7    1        -0.9962704162E+02      0.2160951093E+03
          0                 3           2             4    6     1      -0.7309273022E+00       4    6    1        -0.4034152466E+02      0.5594649289E+02
          0                 4           2             4    6     1      -0.4376778140E+00       4    6    1        -0.2437241009E+02      0.2689733234E+02
          0                 5           2             4    6     1      -0.2609096024E+00       4    6    1        -0.1457842116E+02      0.1552561279E+02
          0                 6           2             4    6     1      -0.1549550921E+00       4    6    1        -0.8682859758E+01      0.9175619741E+01
          0                 7           2             4    6     1      -0.9198528746E-01       4    6    1        -0.5157083536E+01      0.5435282902E+01
          0                 8           2             5    8     1      -0.1759088567E-01       5    8    1        -0.9988115235E+00      0.1077565722E+01
          0                 9           2             5    8     1      -0.1029346529E-01       5    8    1        -0.5844719854E+00      0.5854968284E+00
          0                10           1             5    8     1      -0.6023203448E-02       5    8    1        -0.3420027543E+00      0.3420381284E+00
                                                   Max.-Head-Change                         Max.-Flux-Residual
  Residual-Control   Outer-Iter.   Inner-Iter.     Column Row Layer    Maximum-Head-Change  Column Row Layer    Maximum-Flux-Residual          L2-NORM 
          0                11           1             5    8     1      -0.3524427881E-02       5    8    1        -0.2001188917E+00      0.2001225599E+00
          0                12           1             5    8     1      -0.2062272801E-02       5    8    1        -0.1170959843E+00      0.1170965246E+00
          0                13           1             5    8     1      -0.1206703186E-02       5    8    1        -0.6851606719E-01      0.6851621081E-01
          0                14           1             5    8     1      -0.7060766342E-03       5    8    1        -0.4009034292E-01      0.4009040566E-01
          0                15           1             5    8     1      -0.4131429235E-03       5    8    1        -0.2345763265E-01      0.2345766616E-01
          0                16           1             5    8     1      -0.2417385517E-03       5    8    1        -0.1372542195E-01      0.1372544098E-01
          0                17           1             5    8     1      -0.1414453381E-03       5    8    1        -0.8030902536E-02      0.8030913545E-02
          0                18           1             5    8     1      -0.8276152514E-04       5    8    1        -0.4698942550E-02      0.4698948965E-02

    ------------------------------------------------
       NWT REQUIRED           18 OUTER ITERATIONS 
       AND A TOTAL OF         27 INNER ITERATIONS.
    ------------------------------------------------

 NO OUTPUT CONTROL FOR STRESS PERIOD   44   TIME STEP   13
 
 SOLVING FOR HEAD 
                                                   Max.-Head-Change                         Max.-Flux-Residual
  Residual-Control   Outer-Iter.   Inner-Iter.     Column Row Layer    Maximum-Head-Change  Column Row Layer    Maximum-Flux-Residual          L2-NORM 
          0                 1           2             4    6     1       0.9421900843E+00       4    6    1         0.5112346289E+02      0.7174693027E+02
          0                 2           2             4    8     1       0.3450598158E+00       4    8    1         0.1867040698E+02      0.2444340025E+02
          0                 3           2             5    7     1       0.1421119571E+00       5    7    1         0.7754197736E+01      0.1064795576E+02
          0                 4           2             5    7     1       0.8262675662E-01       5    7    1         0.4511600338E+01      0.5392534849E+01
          0                 5           2             5    7     1       0.4803878934E-01       5    7    1         0.2622864079E+01      0.3094463089E+01
          0                 6           2             5    7     1       0.2793910973E-01       5    7    1         0.1524944464E+01      0.1813143978E+01
          0                 7           2             5    7     1       0.1625723462E-01       5    7    1         0.8869528856E+00      0.1065755651E+01
          0                 8           2             5    7     1       0.9464919207E-02       5    7    1         0.5161403321E+00      0.6269387210E+00
          0                 9           2             5    7     1       0.5513518701E-02       5    7    1         0.3005200319E+00      0.3689808098E+00
          0                10           2             5    7     1       0.3213521427E-02       5    7    1         0.1750737730E+00      0.2172559812E+00
                                                   Max.-Head-Change                         Max.-Flux-Residual
  Residual-Control   Outer-Iter.   Inner-Iter.     Column Row Layer    Maximum-Head-Change  Column Row Layer    Maximum-Flux-Residual          L2-NORM 
          0                11           2             5    7     1       0.1874001141E-02       5    7    1         0.1020489965E+00      0.1279724058E+00
          0                12           2             5    7     1       0.1093426334E-02       5    7    1         0.5951575744E-01      0.7540924734E-01
          0                13           2             5    7     1       0.6383141262E-03       5    7    1         0.3472844824E-01      0.4445120291E-01
          0                14           2             5    7     1       0.3728195043E-03       5    7    1         0.2027510684E-01      0.2621081583E-01
          0                15           2             5    7     1       0.2178592118E-03       5    7    1         0.1184293266E-01      0.1545980156E-01
          0                16           2             5    7     1       0.1273679658E-03       5    7    1         0.6920979900E-02      0.9121006187E-02
          0                17           1             5    7     1       0.7449812414E-04       5    7    1         0.4046522720E-02      0.5382536756E-02

    ------------------------------------------------
       NWT REQUIRED           17 OUTER ITERATIONS 
       AND A TOTAL OF         33 INNER ITERATIONS.
    ------------------------------------------------

 NO OUTPUT CONTROL FOR STRESS PERIOD   44   TIME STEP   14
 
 SOLVING FOR HEAD 
                                                   Max.-Head-Change                         Max.-Flux-Residual
  Residual-Control   Outer-Iter.   Inner-Iter.     Column Row Layer    Maximum-Head-Change  Column Row Layer    Maximum-Flux-Residual          L2-NORM 
          0                 1           2             4    7     1       0.1329135137E+01       4    7    1         0.7173870580E+02      0.1076485022E+03
          0                 2           2             4    8     1      -0.1882477408E+01       5    8    1        -0.1001292985E+03      0.2223416808E+03
          0                 3           2             4    6     1      -0.8035686318E+00       4    6    1        -0.4443114224E+02      0.5548384139E+02
          0                 4           2             4    6     1      -0.4808177363E+00       4    6    1        -0.2678942596E+02      0.2777634271E+02
          0                 5           2             4    6     1      -0.6250079236E-01       4    6    1        -0.3466875778E+01      0.3948542002E+01
          0                 6           2             4    7     1      -0.5901475151E-02       4    7    1        -0.3342145068E+00      0.5243304727E+00
          0                 7           2             4    7     1      -0.1397576096E-02       4    7    1        -0.7820233356E-01      0.1081629232E+00
          0                 8           2             4    7     1      -0.3309579893E-03       4    7    1        -0.1855287335E-01      0.2532861734E-01
          0                 9           1             4    7     1      -0.7837050932E-04       4    7    1        -0.4392871873E-02      0.5946311786E-02

    ------------------------------------------------
       NWT REQUIRED            9 OUTER ITERATIONS 
       AND A TOTAL OF         17 INNER ITERATIONS.
    ------------------------------------------------

 NO OUTPUT CONTROL FOR STRESS PERIOD   44   TIME STEP   15
 
 SOLVING FOR HEAD 
                                                   Max.-Head-Change                         Max.-Flux-Residual
  Residual-Control   Outer-Iter.   Inner-Iter.     Column Row Layer    Maximum-Head-Change  Column Row Layer    Maximum-Flux-Residual          L2-NORM 
          0                 1           2             4    6     1       0.9627739230E+00       4    6    1         0.5254279144E+02      0.5369176092E+02
          0                 2           2             4    6     1       0.1763381355E+00       4    6    1         0.9664609217E+01      0.1037094620E+02
          0                 3           2             4    6     1       0.5553315843E-01       4    6    1         0.2998546055E+01      0.3784598786E+01
          0                 4           2             4    6     1       0.1199666501E-01       4    6    1         0.6546468381E+00      0.6693482852E+00
          0                 5           2             4    6     1       0.2589504282E-02       4    6    1         0.1409728727E+00      0.1412299193E+00
          0                 6           2             4    6     1       0.5592226437E-03       4    6    1         0.3044225770E-01      0.3052026435E-01
          0                 7           2             4    6     1       0.1208325278E-03       4    6    1         0.6574909119E-02      0.6608155814E-02
          0                 8           1             4    6     1       0.2612376020E-04       4    6    1         0.1420846741E-02      0.1433269803E-02

    ------------------------------------------------
       NWT REQUIRED            8 OUTER ITERATIONS 
       AND A TOTAL OF         15 INNER ITERATIONS.
    ------------------------------------------------

 NO OUTPUT CONTROL FOR STRESS PERIOD   44   TIME STEP   16
 
 SOLVING FOR HEAD 
                                                   Max.-Head-Change                         Max.-Flux-Residual
  Residual-Control   Outer-Iter.   Inner-Iter.     Column Row Layer    Maximum-Head-Change  Column Row Layer    Maximum-Flux-Residual          L2-NORM 
          0                 1           2             4    6     1      -0.1074892957E+00       4    6    1        -0.5905698672E+01      0.1220926557E+02
          0                 2           2             5    7     1      -0.1888560563E+01       5    8    1        -0.1000853921E+03      0.2445430635E+03
          0                 3           2             4    8     1       0.1834184601E+00       4    8    1         0.1004720082E+02      0.2212524327E+02
          0                 4           2             4    8     1      -0.1249212101E-01       5    7    1        -0.7089530380E+00      0.1457726881E+01
          0                 5           2             4    8     1       0.4970621338E-03       5    7    1         0.2923793768E-01      0.5805918262E-01
          0                 6           1             4    8     1      -0.6129002190E-05       5    7    1        -0.3735108514E-03      0.7439252419E-03

    ------------------------------------------------
       NWT REQUIRED            6 OUTER ITERATIONS 
       AND A TOTAL OF         11 INNER ITERATIONS.
    ------------------------------------------------

 NO OUTPUT CONTROL FOR STRESS PERIOD   44   TIME STEP   17
 
 SOLVING FOR HEAD 
                                                   Max.-Head-Change                         Max.-Flux-Residual
  Residual-Control   Outer-Iter.   Inner-Iter.     Column Row Layer    Maximum-Head-Change  Column Row Layer    Maximum-Flux-Residual          L2-NORM 
          0                 1           2             4    6     1      -0.7168450648E-01       4    6    1        -0.3970561228E+01      0.7865323621E+01
          0                 2           2             5    8     1      -0.3766091862E-01       5    8    1        -0.2083505463E+01      0.4254053720E+01
          0                 3           2             5    7     1       0.2025334632E-01       5    6    1         0.1102917210E+01      0.2657897337E+01
          0                 4           2             5    7     1      -0.1379180879E-02       5    7    1        -0.7787591203E-01      0.1656847532E+00
          0                 5           1             5    7     1       0.5487891886E-04       5    7    1         0.3223124972E-02      0.6394566517E-02

    ------------------------------------------------
       NWT REQUIRED            5 OUTER ITERATIONS 
       AND A TOTAL OF          9 INNER ITERATIONS.
    ------------------------------------------------

 NO OUTPUT CONTROL FOR STRESS PERIOD   44   TIME STEP   18
 
 SOLVING FOR HEAD 
                                                   Max.-Head-Change                         Max.-Flux-Residual
  Residual-Control   Outer-Iter.   Inner-Iter.     Column Row Layer    Maximum-Head-Change  Column Row Layer    Maximum-Flux-Residual          L2-NORM 
          0                 1           2             4    6     1      -0.6697462766E-01       4    6    1        -0.3709713829E+01      0.7440084385E+01
          0                 2           2             5    7     1      -0.1895487548E+01       5    8    1        -0.1003505436E+03      0.2449158504E+03
          0                 3           2             5    7     1       0.1843575879E+00       5    7    1         0.1013424277E+02      0.2113606643E+02
          0                 4           2             5    7     1      -0.1255494988E-01       5    7    1        -0.7189462169E+00      0.1320781991E+01
          0                 5           2             5    7     1       0.4995674546E-03       5    7    1         0.2978098464E-01      0.5116945948E-01
          0                 6           1             5    7     1      -0.6159889945E-05       5    7    1        -0.3820452384E-03      0.6619920580E-03

    ------------------------------------------------
       NWT REQUIRED            6 OUTER ITERATIONS 
       AND A TOTAL OF         11 INNER ITERATIONS.
    ------------------------------------------------

 NO OUTPUT CONTROL FOR STRESS PERIOD   44   TIME STEP   19
 
 SOLVING FOR HEAD 
                                                   Max.-Head-Change                         Max.-Flux-Residual
  Residual-Control   Outer-Iter.   Inner-Iter.     Column Row Layer    Maximum-Head-Change  Column Row Layer    Maximum-Flux-Residual          L2-NORM 
          0                 1           2             5    8     1       0.3646618639E+00       5    8    1         0.2007422624E+02      0.2062118663E+02
          0                 2           2             5    8     1       0.1655160515E+00       5    8    1         0.9163173682E+01      0.1002839225E+02
          0                 3           2             5    8     1       0.5241304371E-01       5    8    1         0.2860567029E+01      0.3732024642E+01
          0                 4           2             5    8     1       0.1108224813E-01       5    8    1         0.6130338179E+00      0.6236839402E+00
          0                 5           1             5    8     1       0.2343247874E-02       5    8    1         0.1293156487E+00      0.1293717393E+00
          0                 6           1             5    8     1       0.4954605670E-03       5    8    1         0.2734364428E-01      0.2734590808E-01
          0                 7           1             5    8     1       0.1047611038E-03       5    8    1         0.5781629437E-02      0.5782088978E-02
          0                 8           1             5    8     1       0.2215088409E-04       5    8    1         0.1222477469E-02      0.1222574722E-02

    ------------------------------------------------
       NWT REQUIRED            8 OUTER ITERATIONS 
       AND A TOTAL OF         12 INNER ITERATIONS.
    ------------------------------------------------

 NO OUTPUT CONTROL FOR STRESS PERIOD   44   TIME STEP   20
 
 SOLVING FOR HEAD 
                                                   Max.-Head-Change                         Max.-Flux-Residual
  Residual-Control   Outer-Iter.   Inner-Iter.     Column Row Layer    Maximum-Head-Change  Column Row Layer    Maximum-Flux-Residual          L2-NORM 
          0                 1           2             4    8     1       0.3065538169E+00       4    8    1         0.1657338790E+02      0.2032285668E+02
          0                 2           2             4    6     1      -0.1886681022E+01       5    6    1        -0.1002657793E+03      0.2407770969E+03
          0                 3           2             4    8     1      -0.2389631383E+00       4    8    1        -0.1346953546E+02      0.2194822825E+02
          0                 4           2             4    8     1       0.1660872199E-01       4    8    1         0.9610484531E+00      0.1418744593E+01
          0                 5           2             4    8     1      -0.6610290004E-03       4    8    1        -0.3911743580E-01      0.5495707315E-01
          0                 6           1             4    8     1       0.8156825751E-05       4    8    1         0.4936204089E-03      0.6940124542E-03

    ------------------------------------------------
       NWT REQUIRED            6 OUTER ITERATIONS 
       AND A TOTAL OF         11 INNER ITERATIONS.
    ------------------------------------------------

 NO OUTPUT CONTROL FOR STRESS PERIOD   44   TIME STEP   21
 
 SOLVING FOR HEAD 
                                                   Max.-Head-Change                         Max.-Flux-Residual
  Residual-Control   Outer-Iter.   Inner-Iter.     Column Row Layer    Maximum-Head-Change  Column Row Layer    Maximum-Flux-Residual          L2-NORM 
          0                 1           2             5    8     1       0.6851340295E+00       5    8    1         0.3776218759E+02      0.4841489861E+02
          0                 2           2             5    8     1       0.3611481332E+00       5    8    1         0.1999102261E+02      0.2067566916E+02
          0                 3           2             5    8     1       0.2248920839E+00       5    8    1         0.1237428679E+02      0.1269596548E+02
          0                 4           2             5    8     1       0.1291242622E+00       5    8    1         0.7124455732E+01      0.7140361592E+01
          0                 5           2             5    8     1       0.6030241835E-01       5    8    1         0.3326638478E+01      0.3328205967E+01
          0                 6           2             5    8     1       0.1276191546E-01       5    8    1         0.7039781921E+00      0.7043390193E+00
          0                 7           1             5    8     1       0.2700861428E-02       5    8    1         0.1489889236E+00      0.1490697865E+00
          0                 8           1             5    8     1       0.5715972571E-03       5    8    1         0.3153113661E-01      0.3154937194E-01
          0                 9           1             5    8     1       0.1209702401E-03       5    8    1         0.6673111625E-02      0.6677215762E-02
          0                10           1             5    8     1       0.2560161476E-04       5    8    1         0.1412266791E-02      0.1413190676E-02

    ------------------------------------------------
       NWT REQUIRED           10 OUTER ITERATIONS 
       AND A TOTAL OF         16 INNER ITERATIONS.
    ------------------------------------------------

 NO OUTPUT CONTROL FOR STRESS PERIOD   44   TIME STEP   22
 
 SOLVING FOR HEAD 
                                                   Max.-Head-Change                         Max.-Flux-Residual
  Residual-Control   Outer-Iter.   Inner-Iter.     Column Row Layer    Maximum-Head-Change  Column Row Layer    Maximum-Flux-Residual          L2-NORM 
          0                 1           2             4    8     1       0.9552413076E+00       4    8    1         0.5181040886E+02      0.6764964774E+02
          0                 2           2             5    8     1      -0.1787328412E+01       5    8    1        -0.9914503995E+02      0.2192783040E+03
          0                 3           2             5    7     1      -0.8500408890E+00       5    7    1        -0.4818174903E+02      0.6650759180E+02
          0                 4           2             4    8     1      -0.4621682037E+00       4    8    1        -0.2580942451E+02      0.2613656003E+02
          0                 5           2             4    8     1      -0.6531738536E-01       4    8    1        -0.3648017791E+01      0.3659089712E+01
          0                 6           2             4    8     1       0.4449753557E-02       4    8    1         0.2555142703E+00      0.2557867661E+00
          0                 7           2             4    8     1      -0.1771859266E-03       4    8    1        -0.1045719252E-01      0.1046040969E-01
          0                 8           1             4    8     1       0.2189644974E-05       4    8    1         0.1327093917E-03      0.1330603232E-03

    ------------------------------------------------
       NWT REQUIRED            8 OUTER ITERATIONS 
       AND A TOTAL OF         15 INNER ITERATIONS.
    ------------------------------------------------

 NO OUTPUT CONTROL FOR STRESS PERIOD   44   TIME STEP   23
 
 SOLVING FOR HEAD 
                                                   Max.-Head-Change                         Max.-Flux-Residual
  Residual-Control   Outer-Iter.   Inner-Iter.     Column Row Layer    Maximum-Head-Change  Column Row Layer    Maximum-Flux-Residual          L2-NORM 
          0                 1           2             5    7     1       0.1135950993E+01       5    7    1         0.6070049928E+02      0.1101271553E+03
          0                 2           2             4    7     1       0.4128435458E+00       4    7    1         0.2219578754E+02      0.3753510972E+02
          0                 3           2             5    8     1       0.2022248300E+00       5    8    1         0.1105085248E+02      0.1440211847E+02
          0                 4           2             5    8     1       0.1167595504E+00       5    8    1         0.6416087475E+01      0.6741377543E+01
          0                 5           2             5    8     1       0.6720239308E-01       5    8    1         0.3700940128E+01      0.3732285677E+01
          0                 6           2             5    8     1       0.3863170647E-01       5    8    1         0.2129325092E+01      0.2132929311E+01
          0                 7           2             5    8     1       0.2219700456E-01       5    8    1         0.1223878123E+01      0.1224500935E+01
          0                 8           2             5    8     1       0.1275155347E-01       5    8    1         0.7031762981E+00      0.7033609698E+00
          0                 9           2             5    8     1       0.7324867377E-02       5    8    1         0.4039461896E+00      0.4040263141E+00
          0                10           2             5    8     1       0.4207497348E-02       5    8    1         0.2320366383E+00      0.2320779389E+00
                                                   Max.-Head-Change                         Max.-Flux-Residual
  Residual-Control   Outer-Iter.   Inner-Iter.     Column Row Layer    Maximum-Head-Change  Column Row Layer    Maximum-Flux-Residual          L2-NORM 
          0                11           1             5    8     1       0.2416812645E-02       5    8    1         0.1332843854E+00      0.1333071443E+00
          0                12           1             5    8     1       0.1388225966E-02       5    8    1         0.7655928921E-01      0.7657215419E-01
          0                13           1             5    8     1       0.7974006143E-03       5    8    1         0.4397591496E-01      0.4398325890E-01
          0                14           1             5    8     1       0.4580286642E-03       5    8    1         0.2525987646E-01      0.2526408469E-01
          0                15           1             5    8     1       0.2630925947E-03       5    8    1         0.1450932787E-01      0.1451174284E-01
          0                16           1             5    8     1       0.1511209023E-03       5    8    1         0.8334187316E-02      0.8335574002E-02
          0                17           1             5    8     1       0.8680413859E-04       5    8    1         0.4787173562E-02      0.4787970006E-02

    ------------------------------------------------
       NWT REQUIRED           17 OUTER ITERATIONS 
       AND A TOTAL OF         27 INNER ITERATIONS.
    ------------------------------------------------

 NO OUTPUT CONTROL FOR STRESS PERIOD   44   TIME STEP   24
 
 SOLVING FOR HEAD 
                                                   Max.-Head-Change                         Max.-Flux-Residual
  Residual-Control   Outer-Iter.   Inner-Iter.     Column Row Layer    Maximum-Head-Change  Column Row Layer    Maximum-Flux-Residual          L2-NORM 
          0                 1           2             4    6     1       0.1416930540E+01       4    6    1         0.7714188250E+02      0.1038980360E+03
          0                 2           2             4    7     1      -0.1831403865E+01       4    7    1        -0.9925337505E+02      0.2144882719E+03
          0                 3           2             5    7     1      -0.8500881381E+00       5    7    1        -0.4830486892E+02      0.6730680051E+02
          0                 4           2             4    8     1      -0.4432249179E+00       4    8    1        -0.2474749877E+02      0.2548741054E+02
          0                 5           2             4    8     1      -0.2641291990E+00       4    8    1        -0.1475181610E+02      0.1479910310E+02
          0                 6           2             4    8     1       0.1382662713E-01       4    8    1         0.7939902496E+00      0.8401612301E+00
          0                 7           2             4    6     1      -0.1158772496E-02       4    6    1        -0.6492431110E-01      0.7260343140E-01
          0                 8           2             4    6     1      -0.2743890050E-03       4    6    1        -0.1537344250E-01      0.1537921172E-01
          0                 9           1             4    6     1      -0.6497138204E-04       4    6    1        -0.3640176841E-02      0.3640224086E-02

    ------------------------------------------------
       NWT REQUIRED            9 OUTER ITERATIONS 
       AND A TOTAL OF         17 INNER ITERATIONS.
    ------------------------------------------------

 NO OUTPUT CONTROL FOR STRESS PERIOD   44   TIME STEP   25
 
 SOLVING FOR HEAD 
                                                   Max.-Head-Change                         Max.-Flux-Residual
  Residual-Control   Outer-Iter.   Inner-Iter.     Column Row Layer    Maximum-Head-Change  Column Row Layer    Maximum-Flux-Residual          L2-NORM 
          0                 1           2             4    8     1       0.1204612110E+01       4    8    1         0.6452510851E+02      0.1143221920E+03
          0                 2           2             5    6     1       0.4042803247E+00       5    6    1         0.2209206925E+02      0.3855867626E+02
          0                 3           2             4    7     1       0.2416611198E+00       4    7    1         0.1303697436E+02      0.1858736353E+02
          0                 4           2             5    8     1       0.1126436760E+00       5    8    1         0.6184751041E+01      0.7053483241E+01
          0                 5           2             5    8     1       0.6486883222E-01       5    8    1         0.3570998147E+01      0.3652769728E+01
          0                 6           2             5    8     1       0.3730026379E-01       5    8    1         0.2055529331E+01      0.2063667063E+01
          0                 7           2             5    8     1       0.2143505079E-01       5    8    1         0.1181738209E+01      0.1182789530E+01
          0                 8           2             5    8     1       0.1231491272E-01       5    8    1         0.6790513205E+00      0.6792799856E+00
          0                 9           2             5    8     1       0.7074499639E-02       5    8    1         0.3901188887E+00      0.3902032029E+00
          0                10           2             5    8     1       0.4063901082E-02       5    8    1         0.2241075332E+00      0.2241485396E+00
                                                   Max.-Head-Change                         Max.-Flux-Residual
  Residual-Control   Outer-Iter.   Inner-Iter.     Column Row Layer    Maximum-Head-Change  Column Row Layer    Maximum-Flux-Residual          L2-NORM 
          0                11           1             5    8     1       0.2334445442E-02       5    8    1         0.1287365690E+00      0.1287587159E+00
          0                12           1             5    8     1       0.1340977857E-02       5    8    1         0.7395061432E-01      0.7396304017E-01
          0                13           1             5    8     1       0.7702973301E-03       5    8    1         0.4247949853E-01      0.4248657121E-01
          0                14           1             5    8     1       0.4424811142E-03       5    8    1         0.2440147412E-01      0.2440552230E-01
          0                15           1             5    8     1       0.2541738730E-03       5    8    1         0.1401691288E-01      0.1401923498E-01
          0                16           1             5    8     1       0.1460047561E-03       5    8    1         0.8051717557E-02      0.8053050705E-02
          0                17           1             5    8     1       0.8386930934E-04       5    8    1         0.4625137255E-02      0.4625902902E-02

    ------------------------------------------------
       NWT REQUIRED           17 OUTER ITERATIONS 
       AND A TOTAL OF         27 INNER ITERATIONS.
    ------------------------------------------------

 NO OUTPUT CONTROL FOR STRESS PERIOD   44   TIME STEP   26
 
 SOLVING FOR HEAD 
                                                   Max.-Head-Change                         Max.-Flux-Residual
  Residual-Control   Outer-Iter.   Inner-Iter.     Column Row Layer    Maximum-Head-Change  Column Row Layer    Maximum-Flux-Residual          L2-NORM 
          0                 1           2             4    6     1       0.1688106728E+01       4    6    1         0.9197149867E+02      0.1139998825E+03
          0                 2           2             4    7     1      -0.1829493603E+01       4    7    1        -0.9915142868E+02      0.2141474933E+03
          0                 3           2             5    7     1      -0.8651355539E+00       5    7    1        -0.4909976526E+02      0.6852255178E+02
          0                 4           2             4    8     1      -0.4518836692E+00       4    8    1        -0.2524203089E+02      0.2569842605E+02
          0                 5           2             4    8     1      -0.1906494529E+00       4    8    1        -0.1064692192E+02      0.1070463604E+02
          0                 6           2             4    8     1       0.1298673561E-01       4    8    1         0.7458441183E+00      0.7909911692E+00
          0                 7           2             4    6     1      -0.1111768463E-02       4    6    1        -0.6229127128E-01      0.6937165897E-01
          0                 8           2             4    6     1      -0.2632594524E-03       4    6    1        -0.1475011590E-01      0.1475543304E-01
          0                 9           1             4    6     1      -0.6233622110E-04       4    6    1        -0.3492590675E-02      0.3492638381E-02

    ------------------------------------------------
       NWT REQUIRED            9 OUTER ITERATIONS 
       AND A TOTAL OF         17 INNER ITERATIONS.
    ------------------------------------------------

 NO OUTPUT CONTROL FOR STRESS PERIOD   44   TIME STEP   27
 
 SOLVING FOR HEAD 
                                                   Max.-Head-Change                         Max.-Flux-Residual
  Residual-Control   Outer-Iter.   Inner-Iter.     Column Row Layer    Maximum-Head-Change  Column Row Layer    Maximum-Flux-Residual          L2-NORM 
          0                 1           2             4    8     1       0.1194704304E+01       4    8    1         0.6404731606E+02      0.1112012629E+03
          0                 2           2             5    6     1       0.4498073878E+00       5    6    1         0.2460652967E+02      0.3866772909E+02
          0                 3           2             4    7     1       0.2056444972E+00       5    8    1         0.1108414223E+02      0.1771342953E+02
          0                 4           2             4    7     1       0.1206623211E+00       4    7    1         0.6541077900E+01      0.9374520592E+01
          0                 5           2             4    7     1       0.7054300457E-01       4    7    1         0.3833698264E+01      0.5361962871E+01
          0                 6           2             4    7     1       0.4118508341E-01       4    7    1         0.2240351770E+01      0.3102578870E+01
          0                 7           2             4    7     1       0.2403239789E-01       4    7    1         0.1307773619E+01      0.1797674474E+01
          0                 8           2             4    7     1       0.1402052269E-01       4    7    1         0.7630675803E+00      0.1041745622E+01
          0                 9           2             4    7     1       0.8178880119E-02       4    7    1         0.4451635200E+00      0.6037217703E+00
          0                10           2             4    7     1       0.4770962457E-02       4    7    1         0.2596837521E+00      0.3499006411E+00
                                                   Max.-Head-Change                         Max.-Flux-Residual
  Residual-Control   Outer-Iter.   Inner-Iter.     Column Row Layer    Maximum-Head-Change  Column Row Layer    Maximum-Flux-Residual          L2-NORM 
          0                11           2             4    7     1       0.2782968558E-02       4    7    1         0.1514798288E+00      0.2028110241E+00
          0                12           1             4    7     1       0.1623318319E-02       4    7    1         0.8836002812E-01      0.1175655066E+00
          0                13           1             4    7     1       0.9468765029E-03       4    7    1         0.5154069901E-01      0.6815703595E-01
          0                14           1             4    7     1       0.5523034363E-03       4    7    1         0.3006347314E-01      0.3951700531E-01
          0                15           1             4    7     1       0.3221492658E-03       4    7    1         0.1753568798E-01      0.2291393953E-01
          0                16           1             4    7     1       0.1879021202E-03       4    7    1         0.1022825360E-01      0.1328793862E-01
          0                17           1             4    7     1       0.1095977024E-03       4    7    1         0.5965891022E-02      0.7706500039E-02
          0                18           1             4    7     1       0.6392438227E-04       4    7    1         0.3479720747E-02      0.4469903809E-02

    ------------------------------------------------
       NWT REQUIRED           18 OUTER ITERATIONS 
       AND A TOTAL OF         29 INNER ITERATIONS.
    ------------------------------------------------

 NO OUTPUT CONTROL FOR STRESS PERIOD   44   TIME STEP   28
 
 SOLVING FOR HEAD 
                                                   Max.-Head-Change                         Max.-Flux-Residual
  Residual-Control   Outer-Iter.   Inner-Iter.     Column Row Layer    Maximum-Head-Change  Column Row Layer    Maximum-Flux-Residual          L2-NORM 
          0                 1           2             4    6     1       0.1685939691E+01       4    6    1         0.9184037979E+02      0.1127998530E+03
          0                 2           2             4    7     1      -0.1828409761E+01       4    7    1        -0.9899839647E+02      0.2152744803E+03
          0                 3           2             5    7     1      -0.8351382273E+00       5    7    1        -0.4731202293E+02      0.6896746223E+02
          0                 4           2             4    8     1      -0.4613754838E+00       4    8    1        -0.2578008729E+02      0.2642949884E+02
          0                 5           2             4    8     1      -0.1025336663E+00       4    8    1        -0.5725069456E+01      0.5980629414E+01
          0                 6           2             4    6     1      -0.1827555964E-01       4    6    1        -0.1024036678E+01      0.1099817988E+01
          0                 7           2             4    6     1      -0.1085081451E-01       4    6    1        -0.6079884841E+00      0.6082110825E+00
          0                 8           2             4    6     1      -0.6442455480E-02       4    6    1        -0.3609775008E+00      0.3609783347E+00
          0                 9           2             4    6     1      -0.3825056548E-02       4    6    1        -0.2143198006E+00      0.2143202579E+00
          0                10           2             4    6     1      -0.2271023303E-02       4    6    1        -0.1272453259E+00      0.1272455974E+00
                                                   Max.-Head-Change                         Max.-Flux-Residual
  Residual-Control   Outer-Iter.   Inner-Iter.     Column Row Layer    Maximum-Head-Change  Column Row Layer    Maximum-Flux-Residual          L2-NORM 
          0                11           2             4    6     1      -0.1348349839E-02       4    6    1        -0.7554725697E-01      0.7554741816E-01
          0                12           2             4    6     1      -0.8005359385E-03       4    6    1        -0.4485313892E-01      0.4485323461E-01
          0                13           2             4    6     1      -0.4752874177E-03       4    6    1        -0.2662957522E-01      0.2662963203E-01
          0                14           2             4    6     1      -0.2821818218E-03       4    6    1        -0.1581003674E-01      0.1581007055E-01
          0                15           2             4    6     1      -0.1675324646E-03       4    6    1        -0.9386393440E-02      0.9386413556E-02
          0                16           1             4    6     1      -0.9946405196E-04       4    6    1        -0.5572651169E-02      0.5572663110E-02

    ------------------------------------------------
       NWT REQUIRED           16 OUTER ITERATIONS 
       AND A TOTAL OF         31 INNER ITERATIONS.
    ------------------------------------------------

 NO OUTPUT CONTROL FOR STRESS PERIOD   44   TIME STEP   29
 
 SOLVING FOR HEAD 
                                                   Max.-Head-Change                         Max.-Flux-Residual
  Residual-Control   Outer-Iter.   Inner-Iter.     Column Row Layer    Maximum-Head-Change  Column Row Layer    Maximum-Flux-Residual          L2-NORM 
          0                 1           2             4    8     1       0.1187655604E+01       4    8    1         0.6372396985E+02      0.1087336417E+03
          0                 2           2             4    6     1      -0.1795658839E+01       4    6    1        -0.9827864106E+02      0.2083680974E+03
          0                 3           2             5    6     1      -0.7943817054E+00       5    6    1        -0.4471318616E+02      0.7664505566E+02
          0                 4           2             5    6     1      -0.3168875035E+00       5    6    1        -0.1783120184E+02      0.2084224151E+02
          0                 5           2             5    7     1      -0.9014074684E-01       5    7    1        -0.5130848939E+01      0.5431472237E+01
          0                 6           2             5    7     1      -0.5276599778E-01       5    7    1        -0.2993539908E+01      0.3009194868E+01
          0                 7           2             5    7     1      -0.3088680363E-01       5    7    1        -0.1752728921E+01      0.1754223834E+01
          0                 8           2             5    7     1      -0.1807941189E-01       5    7    1        -0.1025942960E+01      0.1026094481E+01
          0                 9           2             5    7     1      -0.1058256816E-01       5    7    1        -0.6005194216E+00      0.6005366499E+00
          0                10           2             5    7     1      -0.6194330840E-02       5    7    1        -0.3515009986E+00      0.3515038705E+00
                                                   Max.-Head-Change                         Max.-Flux-Residual
  Residual-Control   Outer-Iter.   Inner-Iter.     Column Row Layer    Maximum-Head-Change  Column Row Layer    Maximum-Flux-Residual          L2-NORM 
          0                11           2             5    7     1      -0.3625723435E-02       5    7    1        -0.2057419087E+00      0.2057428237E+00
          0                12           2             5    7     1      -0.2122228009E-02       5    7    1        -0.1204248184E+00      0.1204252639E+00
          0                13           2             5    7     1      -0.1242185752E-02       5    7    1        -0.7048656928E-01      0.7048681752E-01
          0                14           2             5    7     1      -0.7270732817E-03       5    7    1        -0.4125664469E-01      0.4125678788E-01
          0                15           2             5    7     1      -0.4255660423E-03       5    7    1        -0.2414785682E-01      0.2414794021E-01
          0                16           2             5    7     1      -0.2490880435E-03       5    7    1        -0.1413384833E-01      0.1413389705E-01
          0                17           2             5    7     1      -0.1457927501E-03       5    7    1        -0.8272549995E-02      0.8272579008E-02
          0                18           1             5    7     1      -0.8533282119E-04       5    7    1        -0.4841896581E-02      0.4841913713E-02

    ------------------------------------------------
       NWT REQUIRED           18 OUTER ITERATIONS 
       AND A TOTAL OF         35 INNER ITERATIONS.
    ------------------------------------------------

 NO OUTPUT CONTROL FOR STRESS PERIOD   44   TIME STEP   30



 STREAM LISTING     PERIOD     44   STEP       30

 LAYER ROW COL. STREAM  RCH.  FLOW INTO     FLOW TO   FLOW OUT OF   OVRLND.     DIRECT     STREAM       STREAM     STREAM     STREAM   STREAMBED  STREAMBED
                SEG.NO.  NO.  STRM. RCH.    AQUIFER    STRM. RCH.    RUNOFF     PRECIP       ET          HEAD       DEPTH      WIDTH   CONDCTNC.   GRADIENT

   1    1    1     1     1    1.3875E+01  1.7894E-01   1.3696E+01  0.000E+00  0.000E+00  0.000E+00  1.09404E+03  9.876E-01  9.972E+00  4.487E-02  1.329E+00
   1    2    2     1     2    1.3696E+01  2.7573E-01   1.3420E+01  0.000E+00  0.000E+00  0.000E+00  1.08904E+03  9.829E-01  9.890E+00  6.923E-02  1.328E+00
   1    3    3     1     3    1.3420E+01  2.3380E-01   1.3186E+01  0.000E+00  0.000E+00  0.000E+00  1.08340E+03  9.775E-01  9.797E+00  5.878E-02  1.326E+00
   1    3    4     1     4    1.3186E+01  2.1419E-01   1.2972E+01  0.000E+00  0.000E+00  0.000E+00  1.07838E+03  9.727E-01  9.714E+00  5.391E-02  1.324E+00
   1    4    5     2     1    1.0972E+01  2.9101E-01   1.0681E+01  0.000E+00  0.000E+00  0.000E+00  1.07266E+03  7.309E-01  1.200E+01  7.800E-02  1.244E+00
   1    5    6     2     2    1.0681E+01  2.2322E-01   1.0458E+01  0.000E+00  0.000E+00  0.000E+00  1.06723E+03  7.204E-01  1.200E+01  6.000E-02  1.240E+00
   1    6    6     2     3    1.0458E+01  2.2267E-01   1.0235E+01  0.000E+00  0.000E+00  0.000E+00  1.06250E+03  7.112E-01  1.200E+01  6.000E-02  1.237E+00
   1    7    6     2     4    1.0235E+01  2.2212E-01   1.0013E+01  0.000E+00  0.000E+00  0.000E+00  1.05778E+03  7.020E-01  1.200E+01  6.000E-02  1.234E+00
   1    8    6     2     5    1.0013E+01  2.2157E-01   9.7913E+00  0.000E+00  0.000E+00  0.000E+00  1.05305E+03  6.928E-01  1.200E+01  6.000E-02  1.231E+00
   1    3    5     3     1    2.0000E+00  2.8252E-01   1.7175E+00  0.000E+00  0.000E+00  0.000E+00  1.07555E+03  1.909E+00  9.636E+00  7.227E-02  1.955E+00
   1    3    6     3     2    1.7175E+00  2.4905E-01   1.4684E+00  0.000E+00  0.000E+00  0.000E+00  1.07264E+03  1.727E+00  8.909E+00  6.682E-02  1.864E+00
   1    3    7     3     3    1.4684E+00  1.9718E-01   1.2712E+00  0.000E+00  0.000E+00  0.000E+00  1.06987E+03  1.555E+00  8.218E+00  5.547E-02  1.777E+00
   1    4    8     3     4    1.2712E+00  2.2567E-01   1.0456E+00  0.000E+00  0.000E+00  0.000E+00  1.06682E+03  1.364E+00  7.455E+00  6.709E-02  1.682E+00
   1    5    8     3     5    1.0456E+00  1.5790E-01   8.8768E-01  0.000E+00  0.000E+00  0.000E+00  1.06362E+03  1.164E+00  6.655E+00  4.991E-02  1.582E+00
   1    6    8     3     6    8.8768E-01  5.5980E-02   8.3170E-01  0.000E+00  0.000E+00  0.000E+00  1.06158E+03  1.036E+00  6.145E+00  1.844E-02  1.518E+00
   1    5   10     4     1    1.0000E+01  9.0919E-02   9.9091E+00  0.000E+00  0.000E+00  0.000E+00  1.07836E+03  6.368E-01  1.000E+01  2.500E-02  1.212E+00
   1    5    9     4     2    9.9091E+00  1.8158E-01   9.7275E+00  0.000E+00  0.000E+00  0.000E+00  1.07154E+03  6.315E-01  1.000E+01  5.000E-02  1.211E+00
   1    6    8     4     3    9.7275E+00  1.2689E-01   9.6006E+00  0.000E+00  0.000E+00  0.000E+00  1.06381E+03  6.256E-01  1.000E+01  3.500E-02  1.209E+00
   1    6    8     5     1    1.0432E+01  2.2686E-01   1.0205E+01  0.000E+00  0.000E+00  0.000E+00  1.05868E+03  6.790E-01  1.542E+01  6.166E-02  1.226E+00
   1    7    7     5     2    1.0205E+01  2.7894E-01   9.9265E+00  0.000E+00  0.000E+00  0.000E+00  1.05417E+03  6.732E-01  1.519E+01  7.594E-02  1.224E+00
   1    8    7     5     3    9.9265E+00  1.9221E-01   9.7343E+00  0.000E+00  0.000E+00  0.000E+00  1.04992E+03  6.676E-01  1.497E+01  5.241E-02  1.223E+00
   1    8    6     5     4    9.7343E+00  1.3577E-01   9.5985E+00  0.000E+00  0.000E+00  0.000E+00  1.04691E+03  6.637E-01  1.482E+01  3.706E-02  1.221E+00
   1    9    6     6     1    9.5985E+00  2.2097E-01   9.3776E+00  0.000E+00  0.000E+00  0.000E+00  1.04341E+03  6.828E-01  1.200E+01  6.000E-02  1.228E+00
   1   10    7     6     2    9.3776E+00  2.2039E-01   9.1572E+00  0.000E+00  0.000E+00  0.000E+00  1.03885E+03  6.732E-01  1.200E+01  6.000E-02  1.224E+00
   1   11    7     6     3    9.1572E+00  2.1981E-01   8.9374E+00  0.000E+00  0.000E+00  0.000E+00  1.03430E+03  6.636E-01  1.200E+01  6.000E-02  1.221E+00
   1   12    7     6     4    8.9374E+00  2.1923E-01   8.7181E+00  0.000E+00  0.000E+00  0.000E+00  1.02974E+03  6.539E-01  1.200E+01  6.000E-02  1.218E+00
   1   13    7     6     5    8.7181E+00  6.8579E-03   8.7113E+00  0.000E+00  0.000E+00  0.000E+00  1.02656E+03  6.488E-01  1.200E+01  2.400E-02  9.525E-02
   1   14    9     7     1    1.5000E+02  1.4290E+00   1.4857E+02  0.000E+00  0.000E+00  0.000E+00  1.03987E+03  2.287E+00  5.529E+01  5.593E-01  8.517E-01
   1   13    8     7     2    1.4857E+02  2.1101E+00   1.4646E+02  0.000E+00  0.000E+00  0.000E+00  1.03478E+03  2.278E+00  5.525E+01  6.147E-01  1.144E+00
   1   13    7     7     3    1.4646E+02  1.9063E+00   1.4455E+02  0.000E+00  0.000E+00  0.000E+00  1.02969E+03  2.267E+00  5.520E+01  5.583E-01  1.138E+00
   1   13    6     8     1    1.5327E+02  1.2336E+00   1.5203E+02  0.000E+00  0.000E+00  0.000E+00  1.02471E+03  2.835E+00  4.111E+01  4.190E-01  9.815E-01
   1   13    5     8     2    1.5203E+02  4.6835E-01   1.5156E+02  0.000E+00  0.000E+00  0.000E+00  1.01845E+03  2.829E+00  4.103E+01  4.181E-01  3.734E-01
   1   13    4     8     3    1.5156E+02 -1.4309E+00   1.5299E+02  0.000E+00  0.000E+00  0.000E+00  1.01221E+03  2.833E+00  4.108E+01  4.186E+00 -1.140E-01
   1   13    3     8     4    1.5299E+02 -3.1476E+00   1.5614E+02  0.000E+00  0.000E+00  0.000E+00  1.00597E+03  2.849E+00  4.131E+01  4.209E+00 -2.493E-01
   1   13    2     8     5    1.5614E+02 -2.4657E+00   1.5861E+02  0.000E+00  0.000E+00  0.000E+00  9.99743E+02  2.868E+00  4.159E+01  4.238E+00 -1.939E-01
   1   13    1     8     6    1.5861E+02 -1.9713E+00   1.6058E+02  0.000E+00  0.000E+00  0.000E+00  9.94758E+02  2.883E+00  4.180E+01  2.556E+00 -2.571E-01
   1    8    6     9     1    9.7913E+00  0.0000E+00   9.7913E+00  0.000E+00  0.000E+00  0.000E+00  1.08099E+03  2.238E+00  4.000E+00  0.000E+00  1.746E+00
   1    8    5     9     2    9.7913E+00  0.0000E+00   9.7913E+00  0.000E+00  0.000E+00  0.000E+00  1.08049E+03  2.238E+00  4.000E+00  0.000E+00  1.746E+00





UNSATURATED ZONE PACKAGE VOLUMETRIC BUDGET FOR  TIME STEP    30 STRESS PERIOD   44
  ------------------------------------------------------------------------------



     CUMULATIVE VOLUMES      L**3       RATES FOR THIS TIME STEP      L**3/T
     ------------------                 ------------------------

           IN:                                      IN:
           ---                                      ---
        INFILTRATION = 11858657607.3433          INFILTRATION =         610.6390

          OUT:                                     OUT:
          ----                                     ----
              UZF ET =  1539358430.0714                UZF ET =          60.8175
        UZF RECHARGE =  9516662001.9763          UZF RECHARGE =          68.7110

            IN - OUT =   802637175.2956              IN - OUT =         481.1106

          STORAGE:                                 STORAGE:
          --------                                 --------
      STORAGE CHANGE =   803882604.0887        STORAGE CHANGE =         481.1105

 PERCENT DISCREPANCY IS DIFFERENCE BETWEEN IN-OUT MINUS CHANGE IN STORAGE
 DIVIDED BY THE AVERAGE OF IN AND OUT TIMES 100

 PERCENT DISCREPANCY =          -0.00     PERCENT DISCREPANCY =           0.00






1
  VOLUMETRIC BUDGET FOR AGRICULTURAL FIELDS AT  END OF TIME STEP   30, STRESS PERIOD  44
  ------------------------------------------------------------------------------

     CUMULATIVE VOLUMES      L**3       RATES FOR THIS TIME STEP      L**3/T
     ------------------                 ------------------------

           IN:                                      IN:
           ---                                      ---
               AG WELLS  = 11215959040.0000                 AG WELLS  =         600.0000
      DIVERSION SEGMENTS =   546800576.0000        DIVERSION SEGMENTS =           9.7913
           GW IRRIGATION =           0.0000             GW IRRIGATION =           0.0000
           SW IRRIGATION =           0.0000             SW IRRIGATION =           0.0000
        SYSTEM LOSSES GW =           0.0000          SYSTEM LOSSES GW =           0.0000
        SYSTEM LOSSES SW =           0.0000          SYSTEM LOSSES SW =           0.0000

                TOTAL IN = 11762759680.0000                  TOTAL IN =         609.7913

          OUT:                                     OUT:
          ----                                     ----
               AG WELLS  =           0.0000                 AG WELLS  =           0.0000
      DIVERSION SEGMENTS =           0.0000        DIVERSION SEGMENTS =           0.0000
           GW IRRIGATION = 11215959040.0000             GW IRRIGATION =         600.0000
           SW IRRIGATION =   546810880.0000             SW IRRIGATION =           9.7915
        SYSTEM LOSSES GW =           0.0000          SYSTEM LOSSES GW =           0.0000
        SYSTEM LOSSES SW =           0.0000          SYSTEM LOSSES SW =           0.0000

               TOTAL OUT = 11762769920.0000                 TOTAL OUT =         609.7915

                IN - OUT =      -10240.0000                  IN - OUT =      -1.8311E-04

     PERCENT DISCREPANCY =          -0.00         PERCENT DISCREPANCY =          -0.00



1
  VOLUMETRIC BUDGET FOR ENTIRE MODEL AT END OF TIME STEP   30, STRESS PERIOD  44
  ------------------------------------------------------------------------------

     CUMULATIVE VOLUMES      L**3       RATES FOR THIS TIME STEP      L**3/T
     ------------------                 ------------------------

           IN:                                      IN:
           ---                                      ---
             STORAGE     = 10046756864.0000               STORAGE     =         527.8065
       CONSTANT HEAD     =           0.0000         CONSTANT HEAD     =           0.0000
     HEAD DEP BOUNDS     =    32777980.0000       HEAD DEP BOUNDS     =           0.2921
      STREAM LEAKAGE     =  1402250368.0000        STREAM LEAKAGE     =          12.5194
        UZF RECHARGE     =  9516661760.0000          UZF RECHARGE     =          68.7110
               GW ET     =           0.0000                 GW ET     =           0.0000
     SURFACE LEAKAGE     =           0.0000       SURFACE LEAKAGE     =           0.0000
           AG WELLS      =           0.0000             AG WELLS      =           0.0000

                TOTAL IN = 20998447104.0000                  TOTAL IN =         609.3290

          OUT:                                     OUT:
          ----                                     ----
             STORAGE     =  8695704576.0000               STORAGE     =       3.0256E-02
       CONSTANT HEAD     =           0.0000         CONSTANT HEAD     =           0.0000
     HEAD DEP BOUNDS     =    32569726.0000       HEAD DEP BOUNDS     =           0.2861
      STREAM LEAKAGE     =  1054062400.0000        STREAM LEAKAGE     =           9.0154
        UZF RECHARGE     =           0.0000          UZF RECHARGE     =           0.0000
               GW ET     =           0.0000                 GW ET     =           0.0000
     SURFACE LEAKAGE     =           0.0000       SURFACE LEAKAGE     =           0.0000
           AG WELLS      = 11215959040.0000             AG WELLS      =         600.0000

               TOTAL OUT = 20998295552.0000                 TOTAL OUT =         609.3318

                IN - OUT =      151552.0000                  IN - OUT =      -2.8076E-03

     PERCENT DISCREPANCY =           0.00         PERCENT DISCREPANCY =          -0.00






         TIME SUMMARY AT END OF TIME STEP   30 IN STRESS PERIOD   44
                    SECONDS     MINUTES      HOURS       DAYS        YEARS
                    -----------------------------------------------------------
   TIME STEP LENGTH  87667.      1461.1      24.352      1.0147     2.77799E-03
 STRESS PERIOD TIME 2.63000E+06  43833.      730.56      30.440     8.33397E-02
         TOTAL TIME 1.13175E+08 1.88626E+06  31438.      1309.9      3.5863    
1
1
                            STRESS PERIOD NO.   45, LENGTH =   2630000.    
                            -----------------------------------------------

                              NUMBER OF TIME STEPS =    30

                               MULTIPLIER FOR DELT =     1.000

                            INITIAL TIME STEP SIZE =   87666.66    

 REUSING NON-PARAMETER GHB CELLS FROM LAST STRESS PERIOD

      2 GHB CELLS

 REUSING STREAM SEGMENT DATA FROM LAST STRESS PERIOD



            AREAL INFILTRATION RATE
 READING ON UNIT   19 WITH FORMAT: (FREE)              

            1           2           3           4           5           6           7           8           9          10
 ........................................................................................................................
   1   1.0000E-10  2.0000E-10   0.000       0.000       0.000       0.000       0.000       0.000       0.000       0.000    
   2   2.0000E-10  1.0000E-10  2.0000E-10   0.000       0.000      8.0000E-10  8.0000E-10  5.0000E-10   0.000       0.000    
   3    0.000      5.0000E-10  1.0000E-10  1.0000E-10  8.0000E-10  8.0000E-10  5.0000E-10  5.0000E-10   0.000       0.000    
   4   8.0000E-10  5.0000E-10  1.0000E-10  1.0000E-10  1.0000E-10  1.0000E-10  1.0000E-10  1.0000E-10  2.0000E-10   0.000    
   5   8.0000E-10  5.0000E-10  1.0000E-10  1.0000E-10  1.0000E-10  1.0000E-10  1.0000E-10  1.0000E-10  1.0000E-10  1.0000E-10
   6   8.0000E-10  5.0000E-10  5.0000E-10  2.0000E-10  2.0000E-10  1.0000E-10  1.0000E-10  1.0000E-10  1.0000E-10  5.0000E-10
   7   8.0000E-10  5.0000E-10  5.0000E-10  2.0000E-10  2.0000E-10  1.0000E-10  1.0000E-10  2.0000E-10  2.0000E-10   0.000    
   8    0.000      5.0000E-10  5.0000E-10  2.0000E-10  2.0000E-10  1.0000E-10  1.0000E-10  2.0000E-10  5.0000E-10   0.000    
   9    0.000      5.0000E-10  5.0000E-10  2.0000E-10  2.0000E-10  1.0000E-10  1.0000E-10  2.0000E-10  5.0000E-10   0.000    
  10    0.000      5.0000E-10  5.0000E-10  2.0000E-10  2.0000E-10  1.0000E-10  1.0000E-10  2.0000E-10  5.0000E-10  8.0000E-10
  11    0.000      1.0000E-10  1.0000E-10  1.0000E-10  1.0000E-10  1.0000E-10  1.0000E-10  2.0000E-10  5.0000E-10   0.000    
  12   1.0000E-10  1.0000E-10  1.0000E-10  1.0000E-10  1.0000E-10  1.0000E-10  1.0000E-10  1.0000E-10  2.0000E-10   0.000    
  13   1.0000E-10  1.0000E-10  2.0000E-10  2.0000E-10  2.0000E-10  2.0000E-10  2.0000E-10  1.0000E-10  1.0000E-10   0.000    
  14    0.000      2.0000E-10  5.0000E-10  5.0000E-10  5.0000E-10  5.0000E-10  5.0000E-10  2.0000E-10  1.0000E-10   0.000    
  15    0.000       0.000      8.0000E-10  8.0000E-10  8.0000E-10  8.0000E-10   0.000       0.000       0.000       0.000    

                  ET RATE =  3.250000E-07

 USING ET EXTINCTION DEPTH FROM PREVIOUS STRESS PERIOD. CURRENT PERIOD IS:      45

 USING EXTINCTION WATER CONTENT FROM PREVIOUS STRESS PERIOD. CURRENT PERIOD IS:      45

 USING AIR ENTRY PRESSURE FROM PREVIOUS STRESS PERIOD. CURRENT PERIOD IS:      45

 USING ROOT PRESSURE HEAD FROM PREVIOUS STRESS PERIOD. CURRENT PERIOD IS:      45

 USING ROOT ACTIVITY FROM PREVIOUS STRESS PERIOD. CURRENT PERIOD IS:      45

 PROCESSING AG STRESS PERIOD DATA

 READING AG STRESS PERIOD DATA

 READING IRRIGATION SEGMENT

 READING IRRIGATION WELL

 READING SUPPLEMENTAL WELL

 END PROCESSING AG STRESS PERIOD DATA OPTIONS
 
 SOLVING FOR HEAD 
                                                   Max.-Head-Change                         Max.-Flux-Residual
  Residual-Control   Outer-Iter.   Inner-Iter.     Column Row Layer    Maximum-Head-Change  Column Row Layer    Maximum-Flux-Residual          L2-NORM 
          0                 1           2             5    8     1       0.1025139152E+01       5    8    1         0.5632901980E+02      0.8431486294E+02
          0                 2           2             4    6     1       0.3430068703E+00       4    6    1         0.1845631882E+02      0.2511537476E+02
          0                 3           2             4    6     1       0.2011619746E+00       4    6    1         0.1091144916E+02      0.1154883039E+02
          0                 4           2             4    6     1       0.1174857188E+00       4    6    1         0.6390599125E+01      0.6450163345E+01
          0                 5           2             4    6     1       0.6851048821E-01       4    6    1         0.3730559213E+01      0.3737273107E+01
          0                 6           2             4    6     1       0.3992832066E-01       4    6    1         0.2175047102E+01      0.2176286291E+01
          0                 7           2             4    6     1       0.2336329025E-01       4    6    1         0.1270896160E+01      0.1271259727E+01
          0                 8           2             4    6     1       0.1363727503E-01       4    6    1         0.7418600772E+00      0.7420406819E+00
          0                 9           2             4    6     1       0.7959970573E-02       4    6    1         0.4330250430E+00      0.4331266312E+00
          0                10           2             4    6     1       0.4646132730E-02       4    6    1         0.2527528031E+00      0.2528123436E+00
                                                   Max.-Head-Change                         Max.-Flux-Residual
  Residual-Control   Outer-Iter.   Inner-Iter.     Column Row Layer    Maximum-Head-Change  Column Row Layer    Maximum-Flux-Residual          L2-NORM 
          0                11           2             4    6     1       0.2711879295E-02       4    6    1         0.1475284710E+00      0.1475638685E+00
          0                12           2             4    6     1       0.1582882155E-02       4    6    1         0.8611018179E-01      0.8613133555E-01
          0                13           2             4    6     1       0.9239035731E-03       4    6    1         0.5026118528E-01      0.5027385193E-01
          0                14           2             4    6     1       0.5392680455E-03       4    6    1         0.2933666913E-01      0.2934425991E-01
          0                15           2             4    6     1       0.3147623373E-03       4    6    1         0.1712335501E-01      0.1712790564E-01
          0                16           2             4    6     1       0.1837218866E-03       4    6    1         0.9994635343E-02      0.9997363776E-02
          0                17           1             4    6     1       0.1072356283E-03       4    6    1         0.5833713600E-02      0.5835349719E-02
          0                18           1             4    6     1       0.6259179163E-04       4    6    1         0.3405048674E-02      0.3406029847E-02

    ------------------------------------------------
       NWT REQUIRED           18 OUTER ITERATIONS 
       AND A TOTAL OF         34 INNER ITERATIONS.
    ------------------------------------------------

 NO OUTPUT CONTROL FOR STRESS PERIOD   45   TIME STEP    1
 
 SOLVING FOR HEAD 
                                                   Max.-Head-Change                         Max.-Flux-Residual
  Residual-Control   Outer-Iter.   Inner-Iter.     Column Row Layer    Maximum-Head-Change  Column Row Layer    Maximum-Flux-Residual          L2-NORM 
          0                 1           2             4    8     1       0.1723365589E+01       4    8    1         0.9255265574E+02      0.1535553904E+03
          0                 2           2             4    6     1      -0.1771476529E+01       4    6    1        -0.9718283891E+02      0.1939700803E+03
          0                 3           2             4    7     1      -0.8727413907E+00       4    7    1        -0.4817399867E+02      0.8204335248E+02
          0                 4           2             5    6     1      -0.4094730473E+00       5    6    1        -0.2306257571E+02      0.2642463127E+02
          0                 5           2             5    6     1      -0.2418553026E+00       5    6    1        -0.1361570847E+02      0.1495153730E+02
          0                 6           2             5    6     1      -0.1428845268E+00       5    6    1        -0.8042276550E+01      0.8841408108E+01
          0                 7           2             5    6     1      -0.6644913677E-01       5    6    1        -0.3732071304E+01      0.4344970509E+01
          0                 8           2             5    7     1      -0.2352620460E-01       5    7    1        -0.1339051236E+01      0.1364434765E+01
          0                 9           2             5    7     1      -0.1377082732E-01       5    7    1        -0.7812835923E+00      0.7813785721E+00
          0                10           2             5    7     1      -0.8060559888E-02       5    7    1        -0.4574017063E+00      0.4574044126E+00
                                                   Max.-Head-Change                         Max.-Flux-Residual
  Residual-Control   Outer-Iter.   Inner-Iter.     Column Row Layer    Maximum-Head-Change  Column Row Layer    Maximum-Flux-Residual          L2-NORM 
          0                11           2             5    7     1      -0.4718103805E-02       5    7    1        -0.2677280413E+00      0.2677291361E+00
          0                12           2             5    7     1      -0.2761639219E-02       5    7    1        -0.1567072606E+00      0.1567078272E+00
          0                13           2             5    7     1      -0.1616454787E-02       5    7    1        -0.9172369794E-01      0.9172401890E-01
          0                14           2             5    7     1      -0.9461442220E-03       5    7    1        -0.5368725462E-01      0.5368744056E-01
          0                15           2             5    7     1      -0.5537940303E-03       5    7    1        -0.3142375032E-01      0.3142385876E-01
          0                16           2             5    7     1      -0.3241427697E-03       5    7    1        -0.1839255207E-01      0.1839261545E-01
          0                17           2             5    7     1      -0.1897236804E-03       5    7    1        -0.1076522519E-01      0.1076526226E-01
          0                18           2             5    7     1      -0.1110462442E-03       5    7    1        -0.6300882523E-02      0.6300904218E-02
          0                19           1             5    7     1      -0.6499550688E-04       5    7    1        -0.3687879971E-02      0.3687892666E-02

    ------------------------------------------------
       NWT REQUIRED           19 OUTER ITERATIONS 
       AND A TOTAL OF         37 INNER ITERATIONS.
    ------------------------------------------------

 NO OUTPUT CONTROL FOR STRESS PERIOD   45   TIME STEP    2
 
 SOLVING FOR HEAD 
                                                   Max.-Head-Change                         Max.-Flux-Residual
  Residual-Control   Outer-Iter.   Inner-Iter.     Column Row Layer    Maximum-Head-Change  Column Row Layer    Maximum-Flux-Residual          L2-NORM 
          0                 1           2             5    6     1       0.1284069396E+01       5    6    1         0.7011664938E+02      0.1229065425E+03
          0                 2           2             4    6     1       0.3460403301E+00       4    6    1         0.1843076224E+02      0.3170640956E+02
          0                 3           2             4    6     1       0.1978148605E+00       4    6    1         0.1069776356E+02      0.1182966176E+02
          0                 4           2             4    6     1       0.1224565040E+00       4    6    1         0.6644217471E+01      0.6907107878E+01
          0                 5           2             4    6     1       0.7150753605E-01       4    6    1         0.3890074143E+01      0.3915937193E+01
          0                 6           2             4    6     1       0.4169679317E-01       4    6    1         0.2270564034E+01      0.2273739727E+01
          0                 7           2             4    6     1       0.2430090199E-01       4    6    1         0.1323770404E+01      0.1324368831E+01
          0                 8           2             4    6     1       0.1415974893E-01       4    6    1         0.7714462153E+00      0.7716338336E+00
          0                 9           2             4    6     1       0.8250042322E-02       4    6    1         0.4494991439E+00      0.4495826623E+00
          0                10           2             4    6     1       0.4806672507E-02       4    6    1         0.2618941543E+00      0.2619379597E+00
                                                   Max.-Head-Change                         Max.-Flux-Residual
  Residual-Control   Outer-Iter.   Inner-Iter.     Column Row Layer    Maximum-Head-Change  Column Row Layer    Maximum-Flux-Residual          L2-NORM 
          0                11           2             4    6     1       0.2800452735E-02       4    6    1         0.1525853368E+00      0.1526098615E+00
          0                12           2             4    6     1       0.1631586842E-02       4    6    1         0.8889882417E-01      0.8891289952E-01
          0                13           2             4    6     1       0.9505861108E-03       4    6    1         0.5179380115E-01      0.5180195533E-01
          0                14           2             4    6     1       0.5538248933E-03       4    6    1         0.3017581394E-01      0.3018055453E-01
          0                15           2             4    6     1       0.3226661284E-03       4    6    1         0.1758085458E-01      0.1758361429E-01
          0                16           2             4    6     1       0.1879897808E-03       4    6    1         0.1024285163E-01      0.1024445900E-01
          0                17           1             4    6     1       0.1095254608E-03       4    6    1         0.5967628046E-02      0.5968564419E-02
          0                18           1             4    6     1       0.6381105558E-04       4    6    1         0.3476823107E-02      0.3477368658E-02

    ------------------------------------------------
       NWT REQUIRED           18 OUTER ITERATIONS 
       AND A TOTAL OF         34 INNER ITERATIONS.
    ------------------------------------------------

 NO OUTPUT CONTROL FOR STRESS PERIOD   45   TIME STEP    3
 
 SOLVING FOR HEAD 
                                                   Max.-Head-Change                         Max.-Flux-Residual
  Residual-Control   Outer-Iter.   Inner-Iter.     Column Row Layer    Maximum-Head-Change  Column Row Layer    Maximum-Flux-Residual          L2-NORM 
          0                 1           2             4    8     1       0.1724082368E+01       4    8    1         0.9261568720E+02      0.1532890687E+03
          0                 2           2             4    6     1      -0.1751600862E+01       4    6    1        -0.9605902045E+02      0.1931367777E+03
          0                 3           2             4    7     1      -0.8897015599E+00       4    7    1        -0.4903292403E+02      0.8279696092E+02
          0                 4           2             5    6     1      -0.4064389990E+00       5    6    1        -0.2287895160E+02      0.2723828364E+02
          0                 5           2             5    6     1      -0.2403080969E+00       5    6    1        -0.1351590084E+02      0.1519823558E+02
          0                 6           2             5    6     1      -0.1421125444E+00       5    6    1        -0.7991485001E+01      0.8996421298E+01
          0                 7           2             5    6     1      -0.8405883413E-01       5    6    1        -0.4725967611E+01      0.5343523080E+01
          0                 8           2             5    6     1      -0.3721179376E-01       5    6    1        -0.2085942340E+01      0.2573095134E+01
          0                 9           2             5    7     1      -0.1586789233E-01       5    7    1        -0.9026789172E+00      0.9144474032E+00
          0                10           2             5    7     1      -0.9288208861E-02       5    7    1        -0.5269691691E+00      0.5270102629E+00
                                                   Max.-Head-Change                         Max.-Flux-Residual
  Residual-Control   Outer-Iter.   Inner-Iter.     Column Row Layer    Maximum-Head-Change  Column Row Layer    Maximum-Flux-Residual          L2-NORM 
          0                11           2             5    7     1      -0.5436782522E-02       5    7    1        -0.3085056332E+00      0.3085067551E+00
          0                12           2             5    7     1      -0.3182358884E-02       5    7    1        -0.1805778250E+00      0.1805784731E+00
          0                13           2             5    7     1      -0.1862745572E-02       5    7    1        -0.1056974779E+00      0.1056978465E+00
          0                14           2             5    7     1      -0.1090322804E-02       5    7    1        -0.6186742242E-01      0.6186763634E-01
          0                15           2             5    7     1      -0.6381955998E-03       5    7    1        -0.3621234204E-01      0.3621246686E-01
          0                16           2             5    7     1      -0.3735507902E-03       5    7    1        -0.2119572969E-01      0.2119580266E-01
          0                17           2             5    7     1      -0.2186465602E-03       5    7    1        -0.1240615725E-01      0.1240619994E-01
          0                18           2             5    7     1      -0.1279772493E-03       5    7    1        -0.7261449671E-02      0.7261474667E-02
          0                19           1             5    7     1      -0.7490658896E-04       5    7    1        -0.4250172093E-02      0.4250186765E-02

    ------------------------------------------------
       NWT REQUIRED           19 OUTER ITERATIONS 
       AND A TOTAL OF         37 INNER ITERATIONS.
    ------------------------------------------------

 NO OUTPUT CONTROL FOR STRESS PERIOD   45   TIME STEP    4
 
 SOLVING FOR HEAD 
                                                   Max.-Head-Change                         Max.-Flux-Residual
  Residual-Control   Outer-Iter.   Inner-Iter.     Column Row Layer    Maximum-Head-Change  Column Row Layer    Maximum-Flux-Residual          L2-NORM 
          0                 1           2             5    6     1       0.1266903556E+01       5    8    1         0.6923958934E+02      0.1226268804E+03
          0                 2           2             4    6     1       0.3555049320E+00       4    6    1         0.1894860640E+02      0.3197235503E+02
          0                 3           2             4    6     1       0.2033189526E+00       4    6    1         0.1099797642E+02      0.1210042450E+02
          0                 4           2             4    6     1       0.1256627606E+00       4    6    1         0.6818905456E+01      0.7076841691E+01
          0                 5           2             4    6     1       0.7337617408E-01       4    6    1         0.3991853980E+01      0.4017326736E+01
          0                 6           2             4    6     1       0.4278600451E-01       4    6    1         0.2329885775E+01      0.2333038046E+01
          0                 7           2             4    6     1       0.2493581549E-01       4    6    1         0.1358349108E+01      0.1358950240E+01
          0                 8           2             4    6     1       0.1452984978E-01       4    6    1         0.7916026419E+00      0.7917931652E+00
          0                 9           2             4    6     1       0.8465779839E-02       4    6    1         0.4612486559E+00      0.4613339742E+00
          0                10           2             4    6     1       0.4932429122E-02       4    6    1         0.2687431311E+00      0.2687879929E+00
                                                   Max.-Head-Change                         Max.-Flux-Residual
  Residual-Control   Outer-Iter.   Inner-Iter.     Column Row Layer    Maximum-Head-Change  Column Row Layer    Maximum-Flux-Residual          L2-NORM 
          0                11           2             4    6     1       0.2873758072E-02       4    6    1         0.1565777084E+00      0.1566028489E+00
          0                12           2             4    6     1       0.1674317546E-02       4    6    1         0.9122603516E-01      0.9124046927E-01
          0                13           2             4    6     1       0.9754944223E-03       4    6    1         0.5315036500E-01      0.5315872823E-01
          0                14           2             4    6     1       0.5683442833E-03       4    6    1         0.3096657357E-01      0.3097143600E-01
          0                15           2             4    6     1       0.3311296729E-03       4    6    1         0.1804179899E-01      0.1804462973E-01
          0                16           2             4    6     1       0.1929232922E-03       4    6    1         0.1051154224E-01      0.1051319101E-01
          0                17           2             4    6     1       0.1124012682E-03       4    6    1         0.6124251309E-02      0.6125211845E-02
          0                18           1             4    6     1       0.6548740047E-04       4    6    1         0.3568120827E-02      0.3568680409E-02

    ------------------------------------------------
       NWT REQUIRED           18 OUTER ITERATIONS 
       AND A TOTAL OF         35 INNER ITERATIONS.
    ------------------------------------------------

 NO OUTPUT CONTROL FOR STRESS PERIOD   45   TIME STEP    5
 
 SOLVING FOR HEAD 
                                                   Max.-Head-Change                         Max.-Flux-Residual
  Residual-Control   Outer-Iter.   Inner-Iter.     Column Row Layer    Maximum-Head-Change  Column Row Layer    Maximum-Flux-Residual          L2-NORM 
          0                 1           2             4    8     1       0.1723506048E+01       4    8    1         0.9261258872E+02      0.1528997204E+03
          0                 2           2             4    6     1      -0.1735166058E+01       4    6    1        -0.9512345273E+02      0.1926843863E+03
          0                 3           2             4    7     1      -0.8305865703E+00       5    8    1        -0.4574267031E+02      0.8154984876E+02
          0                 4           2             5    6     1      -0.4051917051E+00       5    6    1        -0.2279669853E+02      0.2804550025E+02
          0                 5           2             5    6     1      -0.2397791727E+00       5    6    1        -0.1347542840E+02      0.1548441070E+02
          0                 6           2             5    6     1      -0.1419206563E+00       5    6    1        -0.7974625538E+01      0.9171638244E+01
          0                 7           2             5    6     1      -0.8401546363E-01       5    6    1        -0.4720009261E+01      0.5451334911E+01
          0                 8           2             5    6     1      -0.4974496062E-01       5    6    1        -0.2794192258E+01      0.3241625074E+01
          0                 9           2             5    6     1      -0.1943806602E-01       5    6    1        -0.1086522559E+01      0.1469846086E+01
          0                10           2             5    7     1      -0.1039160180E-01       5    7    1        -0.5904618632E+00      0.5953535429E+00
                                                   Max.-Head-Change                         Max.-Flux-Residual
  Residual-Control   Outer-Iter.   Inner-Iter.     Column Row Layer    Maximum-Head-Change  Column Row Layer    Maximum-Flux-Residual          L2-NORM 
          0                11           2             5    7     1      -0.6087084360E-02       5    7    1        -0.3451367378E+00      0.3451542305E+00
          0                12           2             5    7     1      -0.3565605857E-02       5    7    1        -0.2021936991E+00      0.2021943502E+00
          0                13           2             5    7     1      -0.2088596314E-02       5    7    1        -0.1184359122E+00      0.1184363140E+00
          0                14           2             5    7     1      -0.1223412276E-02       5    7    1        -0.6937414582E-01      0.6937437904E-01
          0                15           2             5    7     1      -0.7166189811E-03       5    7    1        -0.4063581990E-01      0.4063595614E-01
          0                16           2             5    7     1      -0.4197598741E-03       5    7    1        -0.2380222520E-01      0.2380230493E-01
          0                17           2             5    7     1      -0.2458729041E-03       5    7    1        -0.1394194092E-01      0.1394198760E-01
          0                18           2             5    7     1      -0.1440182586E-03       5    7    1        -0.8166313633E-02      0.8166340969E-02
          0                19           1             5    7     1      -0.8435708658E-04       5    7    1        -0.4783282248E-02      0.4783298330E-02

    ------------------------------------------------
       NWT REQUIRED           19 OUTER ITERATIONS 
       AND A TOTAL OF         37 INNER ITERATIONS.
    ------------------------------------------------

 NO OUTPUT CONTROL FOR STRESS PERIOD   45   TIME STEP    6
 
 SOLVING FOR HEAD 
                                                   Max.-Head-Change                         Max.-Flux-Residual
  Residual-Control   Outer-Iter.   Inner-Iter.     Column Row Layer    Maximum-Head-Change  Column Row Layer    Maximum-Flux-Residual          L2-NORM 
          0                 1           2             5    6     1       0.1253835001E+01       5    8    1         0.6871576007E+02      0.1225250582E+03
          0                 2           2             4    6     1       0.3622487514E+00       4    6    1         0.1931747681E+02      0.3218052389E+02
          0                 3           2             4    6     1       0.2072422067E+00       4    6    1         0.1121189954E+02      0.1229619447E+02
          0                 4           2             4    6     1       0.1279487313E+00       4    6    1         0.6943427462E+01      0.7198371900E+01
          0                 5           2             4    6     1       0.7470872064E-01       4    6    1         0.4064422690E+01      0.4089668815E+01
          0                 6           2             4    6     1       0.4356286062E-01       4    6    1         0.2372189926E+01      0.2375330498E+01
          0                 7           2             4    6     1       0.2538872127E-01       4    6    1         0.1383012189E+01      0.1383615793E+01
          0                 8           2             4    6     1       0.1479389321E-01       4    6    1         0.8059812295E+00      0.8061738949E+00
          0                 9           2             4    6     1       0.8619716368E-02       4    6    1         0.4696313605E+00      0.4697179724E+00
          0                10           2             4    6     1       0.5022173449E-02       4    6    1         0.2736302241E+00      0.2736758401E+00
                                                   Max.-Head-Change                         Max.-Flux-Residual
  Residual-Control   Outer-Iter.   Inner-Iter.     Column Row Layer    Maximum-Head-Change  Column Row Layer    Maximum-Flux-Residual          L2-NORM 
          0                11           2             4    6     1       0.2926078543E-02       4    6    1         0.1594268626E+00      0.1594524418E+00
          0                12           2             4    6     1       0.1704820075E-02       4    6    1         0.9288707712E-01      0.9290176663E-01
          0                13           2             4    6     1       0.9932772046E-03       4    6    1         0.5411874272E-01      0.5412725476E-01
          0                14           2             4    6     1       0.5787115277E-03       4    6    1         0.3153113169E-01      0.3153608085E-01
          0                15           2             4    6     1       0.3371737051E-03       4    6    1         0.1837093263E-01      0.1837381391E-01
          0                16           2             4    6     1       0.1964469196E-03       4    6    1         0.1070342487E-01      0.1070510366E-01
          0                17           2             4    6     1       0.1144555171E-03       4    6    1         0.6236117505E-02      0.6237095691E-02
          0                18           1             4    6     1       0.6668501168E-04       4    6    1         0.3633337984E-02      0.3633907695E-02

    ------------------------------------------------
       NWT REQUIRED           18 OUTER ITERATIONS 
       AND A TOTAL OF         35 INNER ITERATIONS.
    ------------------------------------------------

 NO OUTPUT CONTROL FOR STRESS PERIOD   45   TIME STEP    7
 
 SOLVING FOR HEAD 
                                                   Max.-Head-Change                         Max.-Flux-Residual
  Residual-Control   Outer-Iter.   Inner-Iter.     Column Row Layer    Maximum-Head-Change  Column Row Layer    Maximum-Flux-Residual          L2-NORM 
          0                 1           2             4    8     1       0.1720608695E+01       4    8    1         0.9259965232E+02      0.1505710884E+03
          0                 2           2             4    6     1      -0.1721934745E+01       4    6    1        -0.9436447968E+02      0.1943339885E+03
          0                 3           2             5    8     1      -0.8012324762E+00       5    8    1        -0.4483834718E+02      0.8000855059E+02
          0                 4           2             5    6     1      -0.4052558092E+00       5    6    1        -0.2279885663E+02      0.2706482037E+02
          0                 5           2             5    6     1      -0.2398885191E+00       5    6    1        -0.1347779794E+02      0.1558498410E+02
          0                 6           2             5    6     1      -0.1420267341E+00       5    6    1        -0.7978513225E+01      0.9246336275E+01
          0                 7           2             5    6     1      -0.8410289853E-01       5    6    1        -0.4723681741E+01      0.5497287129E+01
          0                 8           2             5    6     1      -0.4981138954E-01       5    6    1        -0.2797186700E+01      0.3270242157E+01
          0                 9           2             5    6     1      -0.2950669466E-01       5    6    1        -0.1656683364E+01      0.1945734409E+01
          0                10           2             5    7     1      -0.1088129043E-01       5    7    1        -0.6143525758E+00      0.6393910956E+00
                                                   Max.-Head-Change                         Max.-Flux-Residual
  Residual-Control   Outer-Iter.   Inner-Iter.     Column Row Layer    Maximum-Head-Change  Column Row Layer    Maximum-Flux-Residual          L2-NORM 
          0                11           2             5    7     1      -0.6373966677E-02       5    7    1        -0.3616451682E+00      0.3618592839E+00
          0                12           2             5    7     1      -0.3733673059E-02       5    7    1        -0.2117170554E+00      0.2117186184E+00
          0                13           2             5    7     1      -0.2187056259E-02       5    7    1        -0.1240186221E+00      0.1240190352E+00
          0                14           2             5    7     1      -0.1281093361E-02       5    7    1        -0.7264460315E-01      0.7264484735E-01
          0                15           2             5    7     1      -0.7504102440E-03       5    7    1        -0.4255173163E-01      0.4255187426E-01
          0                16           2             5    7     1      -0.4395556524E-03       5    7    1        -0.2492460424E-01      0.2492468771E-01
          0                17           2             5    7     1      -0.2574696967E-03       5    7    1        -0.1459944850E-01      0.1459949741E-01
          0                18           2             5    7     1      -0.1508118640E-03       5    7    1        -0.8551489551E-02      0.8551518170E-02
          0                19           1             5    7     1      -0.8833687410E-04       5    7    1        -0.5008921484E-02      0.5008938271E-02

    ------------------------------------------------
       NWT REQUIRED           19 OUTER ITERATIONS 
       AND A TOTAL OF         37 INNER ITERATIONS.
    ------------------------------------------------

 NO OUTPUT CONTROL FOR STRESS PERIOD   45   TIME STEP    8
 
 SOLVING FOR HEAD 
                                                   Max.-Head-Change                         Max.-Flux-Residual
  Residual-Control   Outer-Iter.   Inner-Iter.     Column Row Layer    Maximum-Head-Change  Column Row Layer    Maximum-Flux-Residual          L2-NORM 
          0                 1           2             5    8     1       0.1271388907E+01       5    8    1         0.6971230418E+02      0.1233431052E+03
          0                 2           2             5    8     1       0.7266963409E+00       5    8    1         0.3994819080E+02      0.4930456442E+02
          0                 3           2             5    8     1       0.4113419036E+00       5    8    1         0.2266578070E+02      0.2571013406E+02
          0                 4           2             5    8     1       0.2426859516E+00       5    8    1         0.1336815214E+02      0.1520446164E+02
          0                 5           2             5    8     1       0.1392732854E+00       5    8    1         0.7677150830E+01      0.8724054246E+01
          0                 6           2             5    8     1       0.7989521910E-01       5    8    1         0.4405302381E+01      0.5020526792E+01
          0                 7           2             5    8     1       0.4582535918E-01       5    8    1         0.2527031612E+01      0.2890195241E+01
          0                 8           2             5    8     1       0.2628232814E-01       5    8    1         0.1449402589E+01      0.1663915096E+01
          0                 9           2             5    8     1       0.1507338989E-01       5    8    1         0.8312747073E+00      0.9579912879E+00
          0                10           2             5    8     1       0.8644775144E-02       5    8    1         0.4767501627E+00      0.5516020152E+00
                                                   Max.-Head-Change                         Max.-Flux-Residual
  Residual-Control   Outer-Iter.   Inner-Iter.     Column Row Layer    Maximum-Head-Change  Column Row Layer    Maximum-Flux-Residual          L2-NORM 
          0                11           2             5    8     1       0.4957865875E-02       5    8    1         0.2734219543E+00      0.3176350465E+00
          0                12           2             5    8     1       0.2843382091E-02       5    8    1         0.1568102396E+00      0.1829243757E+00
          0                13           2             5    8     1       0.1630705354E-02       5    8    1         0.8993213281E-01      0.1053553727E+00
          0                14           2             5    8     1       0.9352242997E-03       5    8    1         0.5157689644E-01      0.6068546164E-01
          0                15           2             5    8     1       0.5363597293E-03       5    8    1         0.2957982025E-01      0.3495877814E-01
          0                16           2             5    8     1       0.3076073277E-03       5    8    1         0.1696430014E-01      0.2014058624E-01
          0                17           2             5    8     1       0.1764157451E-03       5    8    1         0.9729185757E-02      0.1160467201E-01
          0                18           1             5    8     1       0.1011761552E-03       5    8    1         0.5579781504E-02      0.6687120216E-02
          0                19           1             5    8     1       0.5802553720E-04       5    8    1         0.3200059485E-02      0.3853820376E-02

    ------------------------------------------------
       NWT REQUIRED           19 OUTER ITERATIONS 
       AND A TOTAL OF         36 INNER ITERATIONS.
    ------------------------------------------------

 NO OUTPUT CONTROL FOR STRESS PERIOD   45   TIME STEP    9
 
 SOLVING FOR HEAD 
                                                   Max.-Head-Change                         Max.-Flux-Residual
  Residual-Control   Outer-Iter.   Inner-Iter.     Column Row Layer    Maximum-Head-Change  Column Row Layer    Maximum-Flux-Residual          L2-NORM 
          0                 1           2             4    8     1       0.1769682830E+01       4    8    1         0.9542397937E+02      0.1424204798E+03
          0                 2           2             4    6     1      -0.1715188770E+01       4    6    1        -0.9381795864E+02      0.1909797949E+03
          0                 3           2             5    6     1      -0.7416064010E+00       5    6    1        -0.4121001713E+02      0.7158456104E+02
          0                 4           2             5    6     1      -0.4400933983E+00       5    6    1        -0.2466273286E+02      0.3499110380E+02
          0                 5           2             5    6     1      -0.2113304111E+00       5    6    1        -0.1180899237E+02      0.1665910253E+02
          0                 6           2             5    7     1      -0.1161705022E+00       5    7    1        -0.6594526021E+01      0.6953505992E+01
          0                 7           2             5    7     1      -0.6799909447E-01       5    7    1        -0.3853456307E+01      0.4038721850E+01
          0                 8           2             5    7     1      -0.3979466127E-01       5    7    1        -0.2255719530E+01      0.2368026778E+01
          0                 9           2             5    7     1      -0.2328692142E-01       5    7    1        -0.1320049581E+01      0.1388419481E+01
          0                10           2             5    7     1      -0.1362653060E-01       5    7    1        -0.7724444447E+00      0.8140935013E+00
                                                   Max.-Head-Change                         Max.-Flux-Residual
  Residual-Control   Outer-Iter.   Inner-Iter.     Column Row Layer    Maximum-Head-Change  Column Row Layer    Maximum-Flux-Residual          L2-NORM 
          0                11           2             5    7     1      -0.7973564342E-02       5    7    1        -0.4519935500E+00      0.4773674582E+00
          0                12           2             5    7     1      -0.4665700693E-02       5    7    1        -0.2644795222E+00      0.2799372650E+00
          0                13           2             5    7     1      -0.2730107038E-02       5    7    1        -0.1547566720E+00      0.1641725485E+00
          0                14           2             5    7     1      -0.1597502014E-02       5    7    1        -0.9055351026E-01      0.9628838964E-01
          0                15           2             5    7     1      -0.9347647252E-03       5    7    1        -0.5298588664E-01      0.5647836834E-01
          0                16           2             5    7     1      -0.5469687129E-03       5    7    1        -0.3100375631E-01      0.3313037381E-01
          0                17           2             5    7     1      -0.3200530646E-03       5    7    1        -0.1814127092E-01      0.1943603212E-01
          0                18           2             5    7     1      -0.1872754630E-03       5    7    1        -0.1061501098E-01      0.1140320817E-01
          0                19           2             5    7     1      -0.1095819943E-03       5    7    1        -0.6211158017E-02      0.6690918975E-02
          0                20           1             5    7     1      -0.6412051315E-04       5    7    1        -0.3634328191E-02      0.3926312614E-02

    ------------------------------------------------
       NWT REQUIRED           20 OUTER ITERATIONS 
       AND A TOTAL OF         39 INNER ITERATIONS.
    ------------------------------------------------

 NO OUTPUT CONTROL FOR STRESS PERIOD   45   TIME STEP   10
 
 SOLVING FOR HEAD 
                                                   Max.-Head-Change                         Max.-Flux-Residual
  Residual-Control   Outer-Iter.   Inner-Iter.     Column Row Layer    Maximum-Head-Change  Column Row Layer    Maximum-Flux-Residual          L2-NORM 
          0                 1           2             5    7     1       0.1839634478E+01       5    7    1         0.9913292997E+02      0.1774331435E+03
          0                 2           2             5    7     1       0.1081152415E+01       5    7    1         0.5838657831E+02      0.8766255608E+02
          0                 3           2             5    6     1       0.5624303495E+00       5    6    1         0.3064250595E+02      0.3909859066E+02
          0                 4           2             5    6     1       0.3324904189E+00       5    6    1         0.1818232450E+02      0.2199679495E+02
          0                 5           2             5    6     1       0.1876636474E+00       5    6    1         0.1027490342E+02      0.1250357919E+02
          0                 6           2             4    7     1       0.6580258010E-01       4    7    1         0.3541112093E+01      0.4781093690E+01
          0                 7           2             4    7     1       0.3881364404E-01       4    7    1         0.2090069390E+01      0.2568560301E+01
          0                 8           2             4    7     1       0.2288667965E-01       4    7    1         0.1232693888E+01      0.1499342832E+01
          0                 9           2             4    7     1       0.1349422971E-01       4    7    1         0.7268378192E+00      0.8854151686E+00
          0                10           2             4    7     1       0.7956581867E-02       4    7    1         0.4285485799E+00      0.5235811570E+00
                                                   Max.-Head-Change                         Max.-Flux-Residual
  Residual-Control   Outer-Iter.   Inner-Iter.     Column Row Layer    Maximum-Head-Change  Column Row Layer    Maximum-Flux-Residual          L2-NORM 
          0                11           2             4    7     1       0.4691769072E-02       4    7    1         0.2526860441E+00      0.3096575027E+00
          0                12           2             4    7     1       0.2766847832E-02       4    7    1         0.1490034370E+00      0.1831426512E+00
          0                13           2             4    7     1       0.1631828815E-02       4    7    1         0.8787202916E-01      0.1083196815E+00
          0                14           2             4    7     1       0.9625089886E-03       4    7    1         0.5182578841E-01      0.6406738592E-01
          0                15           2             4    7     1       0.5677737407E-03       4    7    1         0.3056905717E-01      0.3789473154E-01
          0                16           2             4    7     1       0.3349540822E-03       4    7    1         0.1803260154E-01      0.2241468233E-01
          0                17           2             4    7     1       0.1976213036E-03       4    7    1         0.1063834480E-01      0.1325860137E-01
          0                18           1             4    7     1       0.1166056993E-03       4    7    1         0.6276652851E-02      0.7842844061E-02
          0                19           1             4    7     1       0.6880854172E-04       4    7    1         0.3703561386E-02      0.4639375812E-02

    ------------------------------------------------
       NWT REQUIRED           19 OUTER ITERATIONS 
       AND A TOTAL OF         36 INNER ITERATIONS.
    ------------------------------------------------

 NO OUTPUT CONTROL FOR STRESS PERIOD   45   TIME STEP   11
 
 SOLVING FOR HEAD 
                                                   Max.-Head-Change                         Max.-Flux-Residual
  Residual-Control   Outer-Iter.   Inner-Iter.     Column Row Layer    Maximum-Head-Change  Column Row Layer    Maximum-Flux-Residual          L2-NORM 
          0                 1           2             4    6     1       0.1855269289E+01       4    6    1         0.1002889037E+03      0.1189857262E+03
          0                 2           2             5    7     1      -0.1826501113E+01       5    6    1        -0.9958489985E+02      0.2198514356E+03
          0                 3           2             4    6     1      -0.4714157506E+00       4    6    1        -0.2622032176E+02      0.3555928767E+02
          0                 4           2             4    6     1      -0.2811327152E+00       4    6    1        -0.1567758971E+02      0.1650522979E+02
          0                 5           2             4    6     1      -0.1670898602E+00       4    6    1        -0.9344505627E+01      0.9432359782E+01
          0                 6           2             4    6     1      -0.9917514954E-01       4    6    1        -0.5552016931E+01      0.5562636344E+01
          0                 7           2             4    6     1      -0.5883305213E-01       4    6    1        -0.3294900481E+01      0.3296570547E+01
          0                 8           2             4    6     1      -0.3489355588E-01       4    6    1        -0.1954483322E+01      0.1954870085E+01
          0                 9           2             4    6     1      -0.2069330587E-01       4    6    1        -0.1159151034E+01      0.1159283930E+01
          0                10           2             4    6     1      -0.1227149134E-01       4    6    1        -0.6874073381E+00      0.6874676996E+00
                                                   Max.-Head-Change                         Max.-Flux-Residual
  Residual-Control   Outer-Iter.   Inner-Iter.     Column Row Layer    Maximum-Head-Change  Column Row Layer    Maximum-Flux-Residual          L2-NORM 
          0                11           2             4    6     1      -0.7277066826E-02       4    6    1        -0.4076366911E+00      0.4076685343E+00
          0                12           2             4    6     1      -0.4315293913E-02       4    6    1        -0.2417267986E+00      0.2417447857E+00
          0                13           2             4    6     1      -0.2558943846E-02       4    6    1        -0.1433414183E+00      0.1433518763E+00
          0                14           2             4    6     1      -0.1517427739E-02       4    6    1        -0.8499925231E-01      0.8500540475E-01
          0                15           2             4    6     1      -0.8998132323E-03       4    6    1        -0.5040289337E-01      0.5040653010E-01
          0                16           2             4    6     1      -0.5335730720E-03       4    6    1        -0.2988773149E-01      0.2988988525E-01
          0                17           2             4    6     1      -0.3163972004E-03       4    6    1        -0.1772260763E-01      0.1772388410E-01
          0                18           2             4    6     1      -0.1876154380E-03       4    6    1        -0.1050895421E-01      0.1050971096E-01
          0                19           2             4    6     1      -0.1112504370E-03       4    6    1        -0.6231442478E-02      0.6231891175E-02
          0                20           1             4    6     1      -0.6596781415E-04       4    6    1        -0.3695003862E-02      0.3695269918E-02

    ------------------------------------------------
       NWT REQUIRED           20 OUTER ITERATIONS 
       AND A TOTAL OF         39 INNER ITERATIONS.
    ------------------------------------------------

 NO OUTPUT CONTROL FOR STRESS PERIOD   45   TIME STEP   12
 
 SOLVING FOR HEAD 
                                                   Max.-Head-Change                         Max.-Flux-Residual
  Residual-Control   Outer-Iter.   Inner-Iter.     Column Row Layer    Maximum-Head-Change  Column Row Layer    Maximum-Flux-Residual          L2-NORM 
          0                 1           2             4    6     1       0.9467217364E+00       4    6    1         0.5151500324E+02      0.5356936956E+02
          0                 2           2             4    6     1       0.2029860548E+00       4    6    1         0.1104984758E+02      0.1120999035E+02
          0                 3           2             4    6     1       0.3743506565E-01       4    6    1         0.2045729699E+01      0.2125592230E+01
          0                 4           2             4    6     1       0.1477041443E-01       4    6    1         0.7940682913E+00      0.1155770273E+01
          0                 5           2             4    6     1       0.3197450433E-02       4    6    1         0.1731429784E+00      0.2020771671E+00
          0                 6           2             4    6     1       0.6936186353E-03       4    6    1         0.3743578528E-01      0.4577436647E-01
          0                 7           2             4    6     1       0.1508338733E-03       4    6    1         0.8123950155E-02      0.1070024873E-01
          0                 8           1             4    6     1       0.3289386584E-04       4    7    1         0.1832224658E-02      0.2545749071E-02

    ------------------------------------------------
       NWT REQUIRED            8 OUTER ITERATIONS 
       AND A TOTAL OF         15 INNER ITERATIONS.
    ------------------------------------------------

 NO OUTPUT CONTROL FOR STRESS PERIOD   45   TIME STEP   13
 
 SOLVING FOR HEAD 
                                                   Max.-Head-Change                         Max.-Flux-Residual
  Residual-Control   Outer-Iter.   Inner-Iter.     Column Row Layer    Maximum-Head-Change  Column Row Layer    Maximum-Flux-Residual          L2-NORM 
          0                 1           2             5    8     1       0.9479181871E+00       5    8    1         0.5226632791E+02      0.5339352083E+02
          0                 2           2             5    7     1      -0.1844640221E+01       5    6    1        -0.1004440414E+03      0.2358278825E+03
          0                 3           2             5    8     1      -0.7101340812E+00       5    8    1        -0.4047264136E+02      0.4288970380E+02
          0                 4           2             5    8     1      -0.3988713497E+00       5    8    1        -0.2261838890E+02      0.2262652103E+02
          0                 5           2             5    8     1       0.2716394015E-01       5    8    1         0.1584206869E+01      0.1584405941E+01
          0                 6           1             5    8     1      -0.1081417676E-02       5    8    1        -0.6481294407E-01      0.6485606888E-01
          0                 7           1             5    8     1       0.1335410366E-04       5    8    1         0.8206112150E-03      0.8282999767E-03

    ------------------------------------------------
       NWT REQUIRED            7 OUTER ITERATIONS 
       AND A TOTAL OF         12 INNER ITERATIONS.
    ------------------------------------------------

 NO OUTPUT CONTROL FOR STRESS PERIOD   45   TIME STEP   14
 
 SOLVING FOR HEAD 
                                                   Max.-Head-Change                         Max.-Flux-Residual
  Residual-Control   Outer-Iter.   Inner-Iter.     Column Row Layer    Maximum-Head-Change  Column Row Layer    Maximum-Flux-Residual          L2-NORM 
          0                 1           2             5    8     1       0.6091307757E+00       5    8    1         0.3355683100E+02      0.3685958194E+02
          0                 2           2             5    8     1       0.1691985423E+00       5    8    1         0.9343427412E+01      0.9475510849E+01
          0                 3           2             5    8     1       0.4099452250E-01       5    8    1         0.2271647189E+01      0.2360424629E+01
          0                 4           2             5    8     1       0.1808454935E-01       5    8    1         0.9863347045E+00      0.1300733333E+01
          0                 5           2             5    8     1       0.5038797353E-02       5    8    1         0.2785033701E+00      0.2806031899E+00
          0                 6           1             5    8     1       0.1403933164E-02       5    8    1         0.7745587264E-01      0.7746096848E-01
          0                 7           1             5    8     1       0.3911705091E-03       5    8    1         0.2158157948E-01      0.2158252716E-01
          0                 8           1             5    8     1       0.1089897895E-03       5    8    1         0.6013164013E-02      0.6013425889E-02
          0                 9           1             5    8     1       0.3036725459E-04       5    8    1         0.1675416908E-02      0.1675489792E-02

    ------------------------------------------------
       NWT REQUIRED            9 OUTER ITERATIONS 
       AND A TOTAL OF         14 INNER ITERATIONS.
    ------------------------------------------------

 NO OUTPUT CONTROL FOR STRESS PERIOD   45   TIME STEP   15
 
 SOLVING FOR HEAD 
                                                   Max.-Head-Change                         Max.-Flux-Residual
  Residual-Control   Outer-Iter.   Inner-Iter.     Column Row Layer    Maximum-Head-Change  Column Row Layer    Maximum-Flux-Residual          L2-NORM 
          0                 1           2             5    8     1       0.1335185103E+01       5    8    1         0.7357987289E+02      0.7627292240E+02
          0                 2           2             4    6     1      -0.1845760558E+01       5    6    1        -0.1006742935E+03      0.2298280881E+03
          0                 3           2             5    8     1      -0.6187345331E+00       5    8    1        -0.3526486573E+02      0.3853278577E+02
          0                 4           2             5    8     1      -0.3620680166E+00       5    8    1        -0.2052074766E+02      0.2053584977E+02
          0                 5           2             5    8     1      -0.2118751239E+00       5    8    1        -0.1201175141E+02      0.1201179211E+02
          0                 6           2             5    8     1      -0.1239864534E+00       5    8    1        -0.7028791634E+01      0.7028808242E+01
          0                 7           2             5    8     1      -0.7255541078E-01       5    8    1        -0.4113056337E+01      0.4113066003E+01
          0                 8           2             5    8     1      -0.4245852886E-01       5    8    1        -0.2406862761E+01      0.2406868434E+01
          0                 9           2             5    8     1      -0.2484612317E-01       5    8    1        -0.1408440076E+01      0.1408443400E+01
          0                10           2             5    8     1      -0.1453952726E-01       5    8    1        -0.8241845218E+00      0.8241864684E+00
                                                   Max.-Head-Change                         Max.-Flux-Residual
  Residual-Control   Outer-Iter.   Inner-Iter.     Column Row Layer    Maximum-Head-Change  Column Row Layer    Maximum-Flux-Residual          L2-NORM 
          0                11           2             5    8     1      -0.8508236462E-02       5    8    1        -0.4822905740E+00      0.4822917135E+00
          0                12           1             5    8     1      -0.4978817718E-02       5    8    1        -0.2822220035E+00      0.2822226704E+00
          0                13           1             5    8     1      -0.2913467597E-02       5    8    1        -0.1651469178E+00      0.1651473081E+00
          0                14           1             5    8     1      -0.1704870434E-02       5    8    1        -0.9663788611E-01      0.9663811448E-01
          0                15           1             5    8     1      -0.9976305655E-03       5    8    1        -0.5654856964E-01      0.5654870326E-01
          0                16           1             5    8     1      -0.5837747018E-03       5    8    1        -0.3308971499E-01      0.3308979318E-01
          0                17           1             5    8     1      -0.3416000586E-03       5    8    1        -0.1936250738E-01      0.1936255313E-01
          0                18           1             5    8     1      -0.1998884670E-03       5    8    1        -0.1132993232E-01      0.1132995909E-01
          0                19           1             5    8     1      -0.1169646617E-03       5    8    1        -0.6629643468E-02      0.6629659139E-02
          0                20           1             5    8     1      -0.6844137481E-04       5    8    1        -0.3879271372E-02      0.3879280559E-02

    ------------------------------------------------
       NWT REQUIRED           20 OUTER ITERATIONS 
       AND A TOTAL OF         31 INNER ITERATIONS.
    ------------------------------------------------

 NO OUTPUT CONTROL FOR STRESS PERIOD   45   TIME STEP   16
 
 SOLVING FOR HEAD 
                                                   Max.-Head-Change                         Max.-Flux-Residual
  Residual-Control   Outer-Iter.   Inner-Iter.     Column Row Layer    Maximum-Head-Change  Column Row Layer    Maximum-Flux-Residual          L2-NORM 
          0                 1           2             5    8     1       0.9716619129E+00       5    8    1         0.5338664088E+02      0.5794507123E+02
          0                 2           2             5    8     1       0.2730133954E+00       5    8    1         0.1493292381E+02      0.1723606345E+02
          0                 3           2             4    8     1       0.8832504790E-01       4    8    1         0.4736789928E+01      0.6148700066E+01
          0                 4           2             4    8     1       0.5882753828E-01       4    8    1         0.3163868948E+01      0.3567718172E+01
          0                 5           2             4    8     1       0.3456675700E-01       4    8    1         0.1868387465E+01      0.1916956410E+01
          0                 6           2             4    8     1       0.2026666903E-01       4    8    1         0.1097098030E+01      0.1104737427E+01
          0                 7           2             4    8     1       0.1187008458E-01       4    8    1         0.6430628062E+00      0.6444537677E+00
          0                 8           2             4    8     1       0.6948807505E-02       4    8    1         0.3765893561E+00      0.3769045785E+00
          0                 9           2             4    8     1       0.4066909000E-02       4    8    1         0.2204436755E+00      0.2205369443E+00
          0                10           2             4    8     1       0.2379961452E-02       4    8    1         0.1290146512E+00      0.1290501620E+00
                                                   Max.-Head-Change                         Max.-Flux-Residual
  Residual-Control   Outer-Iter.   Inner-Iter.     Column Row Layer    Maximum-Head-Change  Column Row Layer    Maximum-Flux-Residual          L2-NORM 
          0                11           2             4    8     1       0.1392682739E-02       4    8    1         0.7549851707E-01      0.7551482516E-01
          0                12           2             4    8     1       0.8149358278E-03       4    8    1         0.4417919530E-01      0.4418760376E-01
          0                13           2             4    8     1       0.4768583194E-03       4    8    1         0.2585161303E-01      0.2585623191E-01
          0                14           2             4    8     1       0.2790312259E-03       4    8    1         0.1512700490E-01      0.1512962594E-01
          0                15           2             4    8     1       0.1632732565E-03       4    8    1         0.8851483876E-02      0.8852995314E-02
          0                16           1             4    8     1       0.9553812865E-04       4    8    1         0.5179384869E-02      0.5180263572E-02

    ------------------------------------------------
       NWT REQUIRED           16 OUTER ITERATIONS 
       AND A TOTAL OF         31 INNER ITERATIONS.
    ------------------------------------------------

 NO OUTPUT CONTROL FOR STRESS PERIOD   45   TIME STEP   17
 
 SOLVING FOR HEAD 
                                                   Max.-Head-Change                         Max.-Flux-Residual
  Residual-Control   Outer-Iter.   Inner-Iter.     Column Row Layer    Maximum-Head-Change  Column Row Layer    Maximum-Flux-Residual          L2-NORM 
          0                 1           2             5    8     1       0.1342660209E+01       5    8    1         0.7262372036E+02      0.1299012135E+03
          0                 2           2             4    6     1      -0.1720225890E+01       4    6    1        -0.9407888463E+02      0.1972904183E+03
          0                 3           2             4    7     1      -0.7401011474E+00       4    7    1        -0.4059871641E+02      0.7001004281E+02
          0                 4           2             4    7     1      -0.4452620597E+00       4    7    1        -0.2464895894E+02      0.3509597730E+02
          0                 5           2             5    8     1      -0.2151925236E+00       5    8    1        -0.1211380843E+02      0.1627699004E+02
          0                 6           2             5    8     1      -0.1265269266E+00       5    8    1        -0.7145147207E+01      0.7346763230E+01
          0                 7           2             5    8     1      -0.7424395829E-01       5    8    1        -0.4199455051E+01      0.4231790185E+01
          0                 8           2             5    8     1      -0.4351957576E-01       5    8    1        -0.2463641018E+01      0.2470833552E+01
          0                 9           2             5    8     1      -0.2549596708E-01       5    8    1        -0.1443939172E+01      0.1445895135E+01
          0                10           2             5    8     1      -0.1493256072E-01       5    8    1        -0.8458732655E+00      0.8465400980E+00
                                                   Max.-Head-Change                         Max.-Flux-Residual
  Residual-Control   Outer-Iter.   Inner-Iter.     Column Row Layer    Maximum-Head-Change  Column Row Layer    Maximum-Flux-Residual          L2-NORM 
          0                11           2             5    8     1      -0.8744427816E-02       5    8    1        -0.4953919167E+00      0.4956696685E+00
          0                12           2             5    8     1      -0.5120272258E-02       5    8    1        -0.2900899625E+00      0.2902235061E+00
          0                13           2             5    8     1      -0.2998022878E-02       5    8    1        -0.1698572513E+00      0.1699274174E+00
          0                14           1             5    8     1      -0.1755355949E-02       5    8    1        -0.9945286663E-01      0.9949163805E-01
          0                15           1             5    8     1      -0.1027751291E-02       5    8    1        -0.5822905138E-01      0.5825106947E-01
          0                16           1             5    8     1      -0.6017355043E-03       5    8    1        -0.3409220890E-01      0.3410489590E-01
          0                17           1             5    8     1      -0.3523052775E-03       5    8    1        -0.1996023105E-01      0.1996759741E-01
          0                18           1             5    8     1      -0.2062667156E-03       5    8    1        -0.1168616491E-01      0.1169045906E-01
          0                19           1             5    8     1      -0.1207635736E-03       5    8    1        -0.6841873069E-02      0.6844381510E-02
          0                20           1             5    8     1      -0.7070330523E-04       5    8    1        -0.4005667033E-02      0.4007133909E-02

    ------------------------------------------------
       NWT REQUIRED           20 OUTER ITERATIONS 
       AND A TOTAL OF         33 INNER ITERATIONS.
    ------------------------------------------------

 NO OUTPUT CONTROL FOR STRESS PERIOD   45   TIME STEP   18
 
 SOLVING FOR HEAD 
                                                   Max.-Head-Change                         Max.-Flux-Residual
  Residual-Control   Outer-Iter.   Inner-Iter.     Column Row Layer    Maximum-Head-Change  Column Row Layer    Maximum-Flux-Residual          L2-NORM 
          0                 1           2             5    8     1       0.9145410646E+00       5    8    1         0.4975247813E+02      0.8115808483E+02
          0                 2           2             4    8     1       0.3974464921E+00       4    8    1         0.2120156120E+02      0.3137130242E+02
          0                 3           2             4    8     1       0.2287950605E+00       4    8    1         0.1231295704E+02      0.1487052344E+02
          0                 4           2             4    8     1       0.1413203311E+00       4    8    1         0.7623687798E+01      0.8959432544E+01
          0                 5           2             4    8     1       0.8298567364E-01       4    8    1         0.4486782428E+01      0.5133829112E+01
          0                 6           2             4    8     1       0.4865987919E-01       4    8    1         0.2633722909E+01      0.2983724925E+01
          0                 7           2             4    8     1       0.2851237032E-01       4    8    1         0.1544043099E+01      0.1739633416E+01
          0                 8           2             4    8     1       0.1670113944E-01       4    8    1         0.9046563110E+00      0.1014951660E+01
          0                 9           2             4    8     1       0.9781029679E-02       4    8    1         0.5298802746E+00      0.5922405786E+00
          0                10           2             4    8     1       0.5727763422E-02       4    8    1         0.3103179839E+00      0.3456059888E+00
                                                   Max.-Head-Change                         Max.-Flux-Residual
  Residual-Control   Outer-Iter.   Inner-Iter.     Column Row Layer    Maximum-Head-Change  Column Row Layer    Maximum-Flux-Residual          L2-NORM 
          0                11           2             4    8     1       0.3354016316E-02       4    8    1         0.1817199756E+00      0.2016948957E+00
          0                12           2             4    8     1       0.1963963510E-02       4    8    1         0.1064094449E+00      0.1177180071E+00
          0                13           2             4    8     1       0.1149989759E-02       4    8    1         0.6230844093E-01      0.6871119904E-01
          0                14           2             4    8     1       0.6733624663E-03       4    8    1         0.3648433380E-01      0.4010971465E-01
          0                15           2             4    8     1       0.3942750046E-03       4    8    1         0.2136291846E-01      0.2341579551E-01
          0                16           2             4    8     1       0.2308583225E-03       4    8    1         0.1250864540E-01      0.1367114740E-01
          0                17           2             4    8     1       0.1351724141E-03       4    8    1         0.7324129157E-02      0.7982462573E-02
          0                18           1             4    8     1       0.7914564790E-04       4    8    1         0.4288426708E-02      0.4661264653E-02

    ------------------------------------------------
       NWT REQUIRED           18 OUTER ITERATIONS 
       AND A TOTAL OF         35 INNER ITERATIONS.
    ------------------------------------------------

 NO OUTPUT CONTROL FOR STRESS PERIOD   45   TIME STEP   19
 
 SOLVING FOR HEAD 
                                                   Max.-Head-Change                         Max.-Flux-Residual
  Residual-Control   Outer-Iter.   Inner-Iter.     Column Row Layer    Maximum-Head-Change  Column Row Layer    Maximum-Flux-Residual          L2-NORM 
          0                 1           2             5    6     1       0.1748827078E+01       5    6    1         0.9497323436E+02      0.1623611816E+03
          0                 2           2             4    8     1      -0.1605264245E+01       4    8    1        -0.8785305749E+02      0.1825161085E+03
          0                 3           2             4    7     1      -0.6889628156E+00       4    7    1        -0.3732608645E+02      0.7427626762E+02
          0                 4           2             4    7     1      -0.4147329681E+00       4    7    1        -0.2297848807E+02      0.3359747440E+02
          0                 5           2             4    7     1      -0.2482978495E+00       4    7    1        -0.1379696790E+02      0.1879732557E+02
          0                 6           2             4    7     1      -0.1482447992E+00       4    7    1        -0.8256457180E+01      0.1096807588E+02
          0                 7           2             4    7     1      -0.8838393541E-01       4    7    1        -0.4928082287E+01      0.6467830595E+01
          0                 8           2             4    7     1      -0.5265043756E-01       4    7    1        -0.2937693644E+01      0.3823129295E+01
          0                 9           2             4    7     1      -0.3133684743E-01       4    7    1        -0.1749816200E+01      0.2260960178E+01
          0                10           2             4    7     1      -0.1864915467E-01       4    7    1        -0.1041355960E+01      0.1337032270E+01
                                                   Max.-Head-Change                         Max.-Flux-Residual
  Residual-Control   Outer-Iter.   Inner-Iter.     Column Row Layer    Maximum-Head-Change  Column Row Layer    Maximum-Flux-Residual          L2-NORM 
          0                11           2             4    7     1      -0.1109773780E-01       4    7    1        -0.6197198188E+00      0.7908273642E+00
          0                12           2             4    7     1      -0.6603769511E-02       4    7    1        -0.3687745283E+00      0.4677982657E+00
          0                13           2             4    7     1      -0.3929497118E-02       4    7    1        -0.2194371215E+00      0.2767444892E+00
          0                14           2             4    7     1      -0.2338150666E-02       4    7    1        -0.1305711931E+00      0.1637355784E+00
          0                15           1             4    7     1      -0.1391233212E-02       4    7    1        -0.7769183487E-01      0.9688382946E-01
          0                16           1             4    7     1      -0.8277898377E-03       4    7    1        -0.4622697267E-01      0.5733286581E-01
          0                17           1             4    7     1      -0.4925307895E-03       4    7    1        -0.2750478881E-01      0.3393124761E-01
          0                18           1             4    7     1      -0.2930488817E-03       4    7    1        -0.1636493779E-01      0.2008349937E-01
          0                19           1             4    7     1      -0.1743573657E-03       4    7    1        -0.9736745478E-02      0.1188835600E-01
          0                20           1             4    7     1      -0.1037371194E-03       4    7    1        -0.5793044154E-02      0.7037955199E-02
          0                21           1             4    7     1      -0.6171941617E-04       4    7    1        -0.3446620977E-02      0.4166898045E-02

    ------------------------------------------------
       NWT REQUIRED           21 OUTER ITERATIONS 
       AND A TOTAL OF         35 INNER ITERATIONS.
    ------------------------------------------------

 NO OUTPUT CONTROL FOR STRESS PERIOD   45   TIME STEP   20
 
 SOLVING FOR HEAD 
                                                   Max.-Head-Change                         Max.-Flux-Residual
  Residual-Control   Outer-Iter.   Inner-Iter.     Column Row Layer    Maximum-Head-Change  Column Row Layer    Maximum-Flux-Residual          L2-NORM 
          0                 1           2             4    6     1       0.1177820087E+01       4    6    1         0.6330476793E+02      0.1070933361E+03
          0                 2           2             4    8     1       0.4003150819E+00       4    8    1         0.2128818510E+02      0.3752977824E+02
          0                 3           2             4    8     1       0.2309801782E+00       4    8    1         0.1241093881E+02      0.1610324209E+02
          0                 4           2             4    8     1       0.1427491900E+00       4    8    1         0.7695066122E+01      0.9298756611E+01
          0                 5           2             4    8     1       0.8386686722E-01       4    8    1         0.4532720057E+01      0.5252038618E+01
          0                 6           2             4    8     1       0.4918935883E-01       4    8    1         0.2661860341E+01      0.3040761915E+01
          0                 7           2             4    8     1       0.2882662674E-01       4    8    1         0.1560896309E+01      0.1771044507E+01
          0                 8           2             4    8     1       0.1688654290E-01       4    8    1         0.9146437016E+00      0.1032901941E+01
          0                 9           2             4    8     1       0.9890089243E-02       4    8    1         0.5357681485E+00      0.6025897103E+00
          0                10           2             4    8     1       0.5791820000E-02       4    8    1         0.3137800997E+00      0.3515843218E+00
                                                   Max.-Head-Change                         Max.-Flux-Residual
  Residual-Control   Outer-Iter.   Inner-Iter.     Column Row Layer    Maximum-Head-Change  Column Row Layer    Maximum-Flux-Residual          L2-NORM 
          0                11           2             4    8     1       0.3391611691E-02       4    8    1         0.1837530795E+00      0.2051498923E+00
          0                12           2             4    8     1       0.1986019819E-02       4    8    1         0.1076025763E+00      0.1197150950E+00
          0                13           2             4    8     1       0.1162926864E-02       4    8    1         0.6300838697E-01      0.6986579175E-01
          0                14           2             4    8     1       0.6809497485E-03       4    8    1         0.3689487486E-01      0.4077737607E-01
          0                15           2             4    8     1       0.3987243877E-03       4    8    1         0.2160368628E-01      0.2380197551E-01
          0                16           2             4    8     1       0.2334674034E-03       4    8    1         0.1264983646E-01      0.1389457406E-01
          0                17           2             4    8     1       0.1367022859E-03       4    8    1         0.7406921772E-02      0.8111761451E-02
          0                18           1             4    8     1       0.8004267266E-04       4    8    1         0.4336973001E-02      0.4736110891E-02

    ------------------------------------------------
       NWT REQUIRED           18 OUTER ITERATIONS 
       AND A TOTAL OF         35 INNER ITERATIONS.
    ------------------------------------------------

 NO OUTPUT CONTROL FOR STRESS PERIOD   45   TIME STEP   21
 
 SOLVING FOR HEAD 
                                                   Max.-Head-Change                         Max.-Flux-Residual
  Residual-Control   Outer-Iter.   Inner-Iter.     Column Row Layer    Maximum-Head-Change  Column Row Layer    Maximum-Flux-Residual          L2-NORM 
          0                 1           2             5    6     1       0.1739745752E+01       5    6    1         0.9446804747E+02      0.1616475112E+03
          0                 2           2             4    8     1      -0.1609741662E+01       4    8    1        -0.8809997118E+02      0.1825958695E+03
          0                 3           2             4    7     1      -0.6869998181E+00       4    7    1        -0.3718186925E+02      0.7524252350E+02
          0                 4           2             4    7     1      -0.4135810996E+00       4    7    1        -0.2291561366E+02      0.3349889188E+02
          0                 5           2             4    7     1      -0.2476164202E+00       4    7    1        -0.1375864614E+02      0.1871865612E+02
          0                 6           2             4    7     1      -0.1477202162E+00       4    7    1        -0.8233824481E+01      0.1088287707E+02
          0                 7           2             4    7     1      -0.8797416409E-01       4    7    1        -0.4910180133E+01      0.6421116396E+01
          0                 8           2             4    7     1      -0.5237180345E-01       4    7    1        -0.2923726037E+01      0.3794795427E+01
          0                 9           2             4    7     1      -0.3117084023E-01       4    7    1        -0.1740445012E+01      0.2244024389E+01
          0                10           2             4    7     1      -0.1855023895E-01       4    7    1        -0.1035846474E+01      0.1327192208E+01
                                                   Max.-Head-Change                         Max.-Flux-Residual
  Residual-Control   Outer-Iter.   Inner-Iter.     Column Row Layer    Maximum-Head-Change  Column Row Layer    Maximum-Flux-Residual          L2-NORM 
          0                11           2             4    7     1      -0.1103879556E-01       4    7    1        -0.6164318208E+00      0.7850295620E+00
          0                12           2             4    7     1      -0.6568646395E-02       4    7    1        -0.3668156479E+00      0.4643868023E+00
          0                13           2             4    7     1      -0.3908567756E-02       4    7    1        -0.2182698349E+00      0.2747364727E+00
          0                14           2             4    7     1      -0.2325679377E-02       4    7    1        -0.1298756366E+00      0.1625534771E+00
          0                15           1             4    7     1      -0.1383802046E-02       4    7    1        -0.7727737697E-01      0.9618782341E-01
          0                16           1             4    7     1      -0.8233619972E-03       4    7    1        -0.4598001730E-01      0.5692300086E-01
          0                17           1             4    7     1      -0.4898925390E-03       4    7    1        -0.2735764369E-01      0.3368984710E-01
          0                18           1             4    7     1      -0.2914769676E-03       4    7    1        -0.1627726554E-01      0.1994129753E-01
          0                19           1             4    7     1      -0.1734208166E-03       4    7    1        -0.9684509798E-02      0.1180457567E-01
          0                20           1             4    7     1      -0.1031791361E-03       4    7    1        -0.5761922604E-02      0.6988586833E-02
          0                21           1             4    7     1      -0.6138698601E-04       4    7    1        -0.3428079504E-02      0.4137802560E-02

    ------------------------------------------------
       NWT REQUIRED           21 OUTER ITERATIONS 
       AND A TOTAL OF         35 INNER ITERATIONS.
    ------------------------------------------------

 NO OUTPUT CONTROL FOR STRESS PERIOD   45   TIME STEP   22
 
 SOLVING FOR HEAD 
                                                   Max.-Head-Change                         Max.-Flux-Residual
  Residual-Control   Outer-Iter.   Inner-Iter.     Column Row Layer    Maximum-Head-Change  Column Row Layer    Maximum-Flux-Residual          L2-NORM 
          0                 1           2             4    6     1       0.1171540953E+01       4    6    1         0.6297322437E+02      0.1061366063E+03
          0                 2           2             4    8     1       0.3973803226E+00       4    8    1         0.2113430393E+02      0.3732715947E+02
          0                 3           2             4    8     1       0.2292299210E+00       4    8    1         0.1231732937E+02      0.1606786303E+02
          0                 4           2             4    8     1       0.1417169335E+00       4    8    1         0.7639416552E+01      0.9304867754E+01
          0                 5           2             4    8     1       0.8326129915E-01       4    8    1         0.4499943644E+01      0.5272587075E+01
          0                 6           2             4    8     1       0.4883504871E-01       4    8    1         0.2642645034E+01      0.3058546674E+01
          0                 7           2             4    8     1       0.2861961979E-01       4    8    1         0.1549657451E+01      0.1784187472E+01
          0                 8           2             4    8     1       0.1676570099E-01       4    8    1         0.9080785640E+00      0.1042126704E+01
          0                 9           2             4    8     1       0.9819587761E-02       4    8    1         0.5319361287E+00      0.6088906352E+00
          0                10           2             4    8     1       0.5750706914E-02       4    8    1         0.3115446030E+00      0.3558076215E+00
                                                   Max.-Head-Change                         Max.-Flux-Residual
  Residual-Control   Outer-Iter.   Inner-Iter.     Column Row Layer    Maximum-Head-Change  Column Row Layer    Maximum-Flux-Residual          L2-NORM 
          0                11           2             4    8     1       0.3367646229E-02       4    8    1         0.1824495288E+00      0.2079392583E+00
          0                12           2             4    8     1       0.1972055382E-02       4    8    1         0.1068427604E+00      0.1215353479E+00
          0                13           2             4    8     1       0.1154793058E-02       4    8    1         0.6256567466E-01      0.7104171550E-01
          0                14           2             4    8     1       0.6762139377E-03       4    8    1         0.3663702463E-01      0.4153055569E-01
          0                15           2             4    8     1       0.3959681254E-03       4    8    1         0.2145356471E-01      0.2428082978E-01
          0                16           2             4    8     1       0.2318639098E-03       4    8    1         0.1256247021E-01      0.1419706104E-01
          0                17           2             4    8     1       0.1357698294E-03       4    8    1         0.7356098347E-02      0.8301758323E-02
          0                18           1             4    8     1       0.7950069516E-04       4    8    1         0.4307420247E-02      0.4854852357E-02

    ------------------------------------------------
       NWT REQUIRED           18 OUTER ITERATIONS 
       AND A TOTAL OF         35 INNER ITERATIONS.
    ------------------------------------------------

 NO OUTPUT CONTROL FOR STRESS PERIOD   45   TIME STEP   23
 
 SOLVING FOR HEAD 
                                                   Max.-Head-Change                         Max.-Flux-Residual
  Residual-Control   Outer-Iter.   Inner-Iter.     Column Row Layer    Maximum-Head-Change  Column Row Layer    Maximum-Flux-Residual          L2-NORM 
          0                 1           2             5    6     1       0.1715148704E+01       5    6    1         0.9310699348E+02      0.1605551239E+03
          0                 2           2             4    8     1      -0.1612809663E+01       4    8    1        -0.8826998880E+02      0.1827170183E+03
          0                 3           2             4    6     1      -0.6897822827E+00       4    6    1        -0.3776598311E+02      0.7616006771E+02
          0                 4           2             4    7     1      -0.4123932795E+00       4    7    1        -0.2285052061E+02      0.3344037917E+02
          0                 5           2             4    7     1      -0.2468842523E+00       4    7    1        -0.1371913523E+02      0.1864459174E+02
          0                 6           2             4    7     1      -0.1471451236E+00       4    7    1        -0.8209390450E+01      0.1083985256E+02
          0                 7           2             4    7     1      -0.8763187792E-01       4    7    1        -0.4890527179E+01      0.6391985512E+01
          0                 8           2             4    7     1      -0.5216800605E-01       4    7    1        -0.2912389021E+01      0.3778162447E+01
          0                 9           2             4    7     1      -0.3104946655E-01       4    7    1        -0.1733669461E+01      0.2234166902E+01
          0                10           2             4    7     1      -0.1847794489E-01       4    7    1        -0.1031812957E+01      0.1321377073E+01
                                                   Max.-Head-Change                         Max.-Flux-Residual
  Residual-Control   Outer-Iter.   Inner-Iter.     Column Row Layer    Maximum-Head-Change  Column Row Layer    Maximum-Flux-Residual          L2-NORM 
          0                11           2             4    7     1      -0.1099573268E-01       4    7    1        -0.6140292151E+00      0.7815970338E+00
          0                12           2             4    7     1      -0.6542995029E-02       4    7    1        -0.3653845290E+00      0.4623604905E+00
          0                13           2             4    7     1      -0.3893287976E-02       4    7    1        -0.2174173681E+00      0.2735400870E+00
          0                14           2             4    7     1      -0.2316577753E-02       4    7    1        -0.1293678547E+00      0.1618469888E+00
          0                15           1             4    7     1      -0.1378380614E-02       4    7    1        -0.7697491413E-01      0.9577056343E-01
          0                16           1             4    7     1      -0.8201327493E-03       4    7    1        -0.4579985668E-01      0.5667652441E-01
          0                17           1             4    7     1      -0.4879690900E-03       4    7    1        -0.2725033376E-01      0.3354423072E-01
          0                18           1             4    7     1      -0.2903313181E-03       4    7    1        -0.1621334921E-01      0.1985525553E-01
          0                19           1             4    7     1      -0.1727384552E-03       4    7    1        -0.9646440450E-02      0.1175372747E-01
          0                20           1             4    7     1      -0.1027727221E-03       4    7    1        -0.5739248471E-02      0.6958532655E-02
          0                21           1             4    7     1      -0.6114493047E-04       4    7    1        -0.3414575032E-02      0.4120036233E-02

    ------------------------------------------------
       NWT REQUIRED           21 OUTER ITERATIONS 
       AND A TOTAL OF         35 INNER ITERATIONS.
    ------------------------------------------------

 NO OUTPUT CONTROL FOR STRESS PERIOD   45   TIME STEP   24
 
 SOLVING FOR HEAD 
                                                   Max.-Head-Change                         Max.-Flux-Residual
  Residual-Control   Outer-Iter.   Inner-Iter.     Column Row Layer    Maximum-Head-Change  Column Row Layer    Maximum-Flux-Residual          L2-NORM 
          0                 1           2             4    6     1       0.1165827027E+01       4    6    1         0.6267238295E+02      0.1053174403E+03
          0                 2           2             4    8     1       0.3950240673E+00       4    8    1         0.2101080388E+02      0.3716977896E+02
          0                 3           2             4    8     1       0.2278247627E+00       4    8    1         0.1224216775E+02      0.1613064717E+02
          0                 4           2             4    8     1       0.1408885616E+00       4    8    1         0.7594740147E+01      0.9401789487E+01
          0                 5           2             4    8     1       0.8277568394E-01       4    8    1         0.4473642824E+01      0.5339570733E+01
          0                 6           2             4    8     1       0.4855117156E-01       4    8    1         0.2627237638E+01      0.3101218838E+01
          0                 7           2             4    8     1       0.2845392222E-01       4    8    1         0.1540653942E+01      0.1810709663E+01
          0                 8           2             4    8     1       0.1666906714E-01       4    8    1         0.9028242782E+00      0.1058436311E+01
          0                 9           2             4    8     1       0.9763262017E-02       4    8    1         0.5288722044E+00      0.6188544764E+00
          0                10           2             4    8     1       0.5717888525E-02       4    8    1         0.3097588387E+00      0.3618645249E+00
                                                   Max.-Head-Change                         Max.-Flux-Residual
  Residual-Control   Outer-Iter.   Inner-Iter.     Column Row Layer    Maximum-Head-Change  Column Row Layer    Maximum-Flux-Residual          L2-NORM 
          0                11           2             4    8     1       0.3348530336E-02       4    8    1         0.1814091023E+00      0.2116060794E+00
          0                12           2             4    8     1       0.1960923801E-02       4    8    1         0.1062367640E+00      0.1237474311E+00
          0                13           2             4    8     1       0.1148312481E-02       4    8    1         0.6221280381E-01      0.7237212350E-01
          0                14           2             4    8     1       0.6724419433E-03       4    8    1         0.3643159765E-01      0.4232855412E-01
          0                15           2             4    8     1       0.3937731356E-03       4    8    1         0.2133400075E-01      0.2475834652E-01
          0                16           2             4    8     1       0.2305868813E-03       4    8    1         0.1249289609E-01      0.1448220202E-01
          0                17           2             4    8     1       0.1350270198E-03       4    8    1         0.7315621904E-02      0.8471705385E-02
          0                18           1             4    8     1       0.7906871787E-04       4    8    1         0.4283877010E-02      0.4955972156E-02

    ------------------------------------------------
       NWT REQUIRED           18 OUTER ITERATIONS 
       AND A TOTAL OF         35 INNER ITERATIONS.
    ------------------------------------------------

 NO OUTPUT CONTROL FOR STRESS PERIOD   45   TIME STEP   25
 
 SOLVING FOR HEAD 
                                                   Max.-Head-Change                         Max.-Flux-Residual
  Residual-Control   Outer-Iter.   Inner-Iter.     Column Row Layer    Maximum-Head-Change  Column Row Layer    Maximum-Flux-Residual          L2-NORM 
          0                 1           2             5    6     1       0.1664290389E+01       5    6    1         0.9029728888E+02      0.1587285094E+03
          0                 2           2             4    8     1      -0.1614752500E+01       4    8    1        -0.8837855072E+02      0.1829617067E+03
          0                 3           2             4    6     1      -0.7200287900E+00       4    6    1        -0.3945851780E+02      0.7704459355E+02
          0                 4           2             4    7     1      -0.4112410455E+00       4    7    1        -0.2278721484E+02      0.3342132446E+02
          0                 5           2             4    7     1      -0.2460990902E+00       4    7    1        -0.1368081335E+02      0.1854900448E+02
          0                 6           2             4    7     1      -0.1466786951E+00       4    7    1        -0.8182903409E+01      0.1081276050E+02
          0                 7           2             4    7     1      -0.8735451738E-01       4    7    1        -0.4875057492E+01      0.6376327916E+01
          0                 8           2             4    7     1      -0.5200297822E-01       4    7    1        -0.2903170402E+01      0.3768791904E+01
          0                 9           2             4    7     1      -0.3095124731E-01       4    7    1        -0.1728185549E+01      0.2228596116E+01
          0                10           2             4    7     1      -0.1841947937E-01       4    7    1        -0.1028548979E+01      0.1318066380E+01
                                                   Max.-Head-Change                         Max.-Flux-Residual
  Residual-Control   Outer-Iter.   Inner-Iter.     Column Row Layer    Maximum-Head-Change  Column Row Layer    Maximum-Flux-Residual          L2-NORM 
          0                11           2             4    7     1      -0.1096092831E-01       4    7    1        -0.6120863246E+00      0.7796297739E+00
          0                12           2             4    7     1      -0.6522275428E-02       4    7    1        -0.3642279408E+00      0.4611914372E+00
          0                13           2             4    7     1      -0.3880953137E-02       4    7    1        -0.2167288412E+00      0.2728453100E+00
          0                14           2             4    7     1      -0.2309234550E-02       4    7    1        -0.1289579651E+00      0.1614340413E+00
          0                15           1             4    7     1      -0.1374009069E-02       4    7    1        -0.7673090153E-01      0.9552510380E-01
          0                16           1             4    7     1      -0.8175303090E-03       4    7    1        -0.4565459371E-01      0.5653060980E-01
          0                17           1             4    7     1      -0.4864198375E-03       4    7    1        -0.2716385812E-01      0.3345748482E-01
          0                18           1             4    7     1      -0.2894090462E-03       4    7    1        -0.1616187044E-01      0.1980368176E-01
          0                19           1             4    7     1      -0.1721894316E-03       4    7    1        -0.9615795558E-02      0.1172306287E-01
          0                20           1             4    7     1      -0.1024458949E-03       4    7    1        -0.5721006023E-02      0.6940299059E-02
          0                21           1             4    7     1      -0.6095037585E-04       4    7    1        -0.3403715692E-02      0.4109193638E-02

    ------------------------------------------------
       NWT REQUIRED           21 OUTER ITERATIONS 
       AND A TOTAL OF         35 INNER ITERATIONS.
    ------------------------------------------------

 NO OUTPUT CONTROL FOR STRESS PERIOD   45   TIME STEP   26
 
 SOLVING FOR HEAD 
                                                   Max.-Head-Change                         Max.-Flux-Residual
  Residual-Control   Outer-Iter.   Inner-Iter.     Column Row Layer    Maximum-Head-Change  Column Row Layer    Maximum-Flux-Residual          L2-NORM 
          0                 1           2             4    6     1       0.1160508804E+01       4    6    1         0.6239232941E+02      0.1046272401E+03
          0                 2           2             4    8     1       0.3931209257E+00       4    8    1         0.2091092775E+02      0.3712022536E+02
          0                 3           2             4    8     1       0.2266909407E+00       4    8    1         0.1218147283E+02      0.1618126831E+02
          0                 4           2             4    8     1       0.1402204745E+00       4    8    1         0.7558695287E+01      0.9458870926E+01
          0                 5           2             4    8     1       0.8238410347E-01       4    8    1         0.4452432336E+01      0.5377796785E+01
          0                 6           2             4    8     1       0.4832225562E-01       4    8    1         0.2614813991E+01      0.3124866468E+01
          0                 7           2             4    8     1       0.2832027620E-01       4    8    1         0.1533393522E+01      0.1825036021E+01
          0                 8           2             4    8     1       0.1659109648E-01       4    8    1         0.8985862010E+00      0.1067053743E+01
          0                 9           2             4    8     1       0.9717791132E-02       4    8    1         0.5263998823E+00      0.6240191925E+00
          0                10           2             4    8     1       0.5691377454E-02       4    8    1         0.3083171063E+00      0.3649520303E+00
                                                   Max.-Head-Change                         Max.-Flux-Residual
  Residual-Control   Outer-Iter.   Inner-Iter.     Column Row Layer    Maximum-Head-Change  Column Row Layer    Maximum-Flux-Residual          L2-NORM 
          0                11           2             4    8     1       0.3333076191E-02       4    8    1         0.1805685512E+00      0.2134479396E+00
          0                12           2             4    8     1       0.1951916334E-02       4    8    1         0.1057467919E+00      0.1248441874E+00
          0                13           2             4    8     1       0.1143063090E-02       4    8    1         0.6192722850E-01      0.7302413632E-01
          0                14           2             4    8     1       0.6693830238E-03       4    8    1         0.3626517230E-01      0.4271560460E-01
          0                15           2             4    8     1       0.3919908267E-03       4    8    1         0.2123702303E-01      0.2498780675E-01
          0                16           2             4    8     1       0.2295485030E-03       4    8    1         0.1243639191E-01      0.1461807422E-01
          0                17           2             4    8     1       0.1344221150E-03       4    8    1         0.7282702883E-02      0.8552073863E-02
          0                18           1             4    8     1       0.7871636569E-04       4    8    1         0.4264700387E-02      0.5003463667E-02

    ------------------------------------------------
       NWT REQUIRED           18 OUTER ITERATIONS 
       AND A TOTAL OF         35 INNER ITERATIONS.
    ------------------------------------------------

 NO OUTPUT CONTROL FOR STRESS PERIOD   45   TIME STEP   27
 
 SOLVING FOR HEAD 
                                                   Max.-Head-Change                         Max.-Flux-Residual
  Residual-Control   Outer-Iter.   Inner-Iter.     Column Row Layer    Maximum-Head-Change  Column Row Layer    Maximum-Flux-Residual          L2-NORM 
          0                 1           2             5    6     1       0.1626600138E+01       5    6    1         0.8821442644E+02      0.1573847640E+03
          0                 2           2             4    8     1      -0.1615791318E+01       4    8    1        -0.8843765011E+02      0.1830997267E+03
          0                 3           2             4    6     1      -0.7453192044E+00       4    6    1        -0.4087417897E+02      0.7782205980E+02
          0                 4           2             4    7     1      -0.4101741055E+00       4    7    1        -0.2272852180E+02      0.3342574601E+02
          0                 5           2             4    7     1      -0.2454172716E+00       4    7    1        -0.1364532938E+02      0.1850940551E+02
          0                 6           2             4    7     1      -0.1462738752E+00       4    7    1        -0.8160058111E+01      0.1080046708E+02
          0                 7           2             4    7     1      -0.8711393658E-01       4    7    1        -0.4861621042E+01      0.6369005475E+01
          0                 8           2             4    7     1      -0.5185992796E-01       4    7    1        -0.2895175506E+01      0.3764316377E+01
          0                 9           2             4    7     1      -0.3086616612E-01       4    7    1        -0.1723432235E+01      0.2225886211E+01
          0                10           2             4    7     1      -0.1836886904E-01       4    7    1        -0.1025721804E+01      0.1316427797E+01
                                                   Max.-Head-Change                         Max.-Flux-Residual
  Residual-Control   Outer-Iter.   Inner-Iter.     Column Row Layer    Maximum-Head-Change  Column Row Layer    Maximum-Flux-Residual          L2-NORM 
          0                11           2             4    7     1      -0.1093082075E-01       4    7    1        -0.6104045940E+00      0.7786397617E+00
          0                12           2             4    7     1      -0.6504364122E-02       4    7    1        -0.3632275050E+00      0.4605935750E+00
          0                13           2             4    7     1      -0.3870297333E-02       4    7    1        -0.2161336784E+00      0.2724844220E+00
          0                14           2             4    7     1      -0.2302895150E-02       4    7    1        -0.1286038953E+00      0.1612162892E+00
          0                15           1             4    7     1      -0.1370237595E-02       4    7    1        -0.7652025972E-01      0.9539377041E-01
          0                16           1             4    7     1      -0.8152865639E-03       4    7    1        -0.4552927934E-01      0.5645142985E-01
          0                17           1             4    7     1      -0.4850849798E-03       4    7    1        -0.2708930656E-01      0.3340976626E-01
          0                18           1             4    7     1      -0.2886149092E-03       4    7    1        -0.1611751860E-01      0.1977493453E-01
          0                19           1             4    7     1      -0.1717169836E-03       4    7    1        -0.9589410076E-02      0.1170575091E-01
          0                20           1             4    7     1      -0.1021648269E-03       4    7    1        -0.5705309004E-02      0.6929877234E-02
          0                21           1             4    7     1      -0.6078316419E-04       4    7    1        -0.3394377395E-02      0.4102921949E-02

    ------------------------------------------------
       NWT REQUIRED           21 OUTER ITERATIONS 
       AND A TOTAL OF         35 INNER ITERATIONS.
    ------------------------------------------------

 NO OUTPUT CONTROL FOR STRESS PERIOD   45   TIME STEP   28
 
 SOLVING FOR HEAD 
                                                   Max.-Head-Change                         Max.-Flux-Residual
  Residual-Control   Outer-Iter.   Inner-Iter.     Column Row Layer    Maximum-Head-Change  Column Row Layer    Maximum-Flux-Residual          L2-NORM 
          0                 1           2             4    6     1       0.1155618112E+01       4    6    1         0.6213461162E+02      0.1040600940E+03
          0                 2           2             4    8     1       0.3915725698E+00       4    8    1         0.2082940137E+02      0.3707852670E+02
          0                 3           2             4    8     1       0.2257704759E+00       4    8    1         0.1213211997E+02      0.1622094297E+02
          0                 4           2             4    8     1       0.1396786579E+00       4    8    1         0.7529440961E+01      0.9502298659E+01
          0                 5           2             4    8     1       0.8206669447E-01       4    8    1         0.4435232885E+01      0.5406789998E+01
          0                 6           2             4    8     1       0.4813675006E-01       4    8    1         0.2604744231E+01      0.3142723765E+01
          0                 7           2             4    8     1       0.2821199081E-01       4    8    1         0.1527510136E+01      0.1835808501E+01
          0                 8           2             4    8     1       0.1652792752E-01       4    8    1         0.8951524108E+00      0.1073508642E+01
          0                 9           2             4    8     1       0.9680954569E-02       4    8    1         0.5243969239E+00      0.6278746173E+00
          0                10           2             4    8     1       0.5669901355E-02       4    8    1         0.3071491498E+00      0.3672498155E+00
                                                   Max.-Head-Change                         Max.-Flux-Residual
  Residual-Control   Outer-Iter.   Inner-Iter.     Column Row Layer    Maximum-Head-Change  Column Row Layer    Maximum-Flux-Residual          L2-NORM 
          0                11           2             4    8     1       0.3320557404E-02       4    8    1         0.1798876412E+00      0.2148149562E+00
          0                12           2             4    8     1       0.1944619833E-02       4    8    1         0.1053498864E+00      0.1256562008E+00
          0                13           2             4    8     1       0.1138810823E-02       4    8    1         0.6169589850E-01      0.7350580675E-01
          0                14           2             4    8     1       0.6669051232E-03       4    8    1         0.3613035952E-01      0.4300096531E-01
          0                15           2             4    8     1       0.3905470254E-03       4    8    1         0.2115846540E-01      0.2515667492E-01
          0                16           2             4    8     1       0.2287073161E-03       4    8    1         0.1239061926E-01      0.1471790322E-01
          0                17           2             4    8     1       0.1339320649E-03       4    8    1         0.7256035178E-02      0.8611034463E-02
          0                18           1             4    8     1       0.7843090082E-04       4    8    1         0.4249164780E-02      0.5038257238E-02

    ------------------------------------------------
       NWT REQUIRED           18 OUTER ITERATIONS 
       AND A TOTAL OF         35 INNER ITERATIONS.
    ------------------------------------------------

 NO OUTPUT CONTROL FOR STRESS PERIOD   45   TIME STEP   29
 
 SOLVING FOR HEAD 
                                                   Max.-Head-Change                         Max.-Flux-Residual
  Residual-Control   Outer-Iter.   Inner-Iter.     Column Row Layer    Maximum-Head-Change  Column Row Layer    Maximum-Flux-Residual          L2-NORM 
          0                 1           2             5    6     1       0.1599226713E+01       5    6    1         0.8670083806E+02      0.1564089463E+03
          0                 2           2             4    8     1      -0.1616097656E+01       4    8    1        -0.8845659144E+02      0.1831549905E+03
          0                 3           2             4    6     1      -0.7659862844E+00       4    6    1        -0.4203135725E+02      0.7849112519E+02
          0                 4           2             4    7     1      -0.4092303389E+00       4    7    1        -0.2267656296E+02      0.3345146479E+02
          0                 5           2             4    7     1      -0.2448515150E+00       4    7    1        -0.1361394228E+02      0.1851016338E+02
          0                 6           2             4    7     1      -0.1459381982E+00       4    7    1        -0.8141238691E+01      0.1080120836E+02
          0                 7           2             4    7     1      -0.8691459434E-01       4    7    1        -0.4850470798E+01      0.6369094975E+01
          0                 8           2             4    7     1      -0.5174149197E-01       4    7    1        -0.2888552228E+01      0.3764199662E+01
          0                 9           2             4    7     1      -0.3079578159E-01       4    7    1        -0.1719497094E+01      0.2225727981E+01
          0                10           2             4    7     1      -0.1832703510E-01       4    7    1        -0.1023383191E+01      0.1316283044E+01
                                                   Max.-Head-Change                         Max.-Flux-Residual
  Residual-Control   Outer-Iter.   Inner-Iter.     Column Row Layer    Maximum-Head-Change  Column Row Layer    Maximum-Flux-Residual          L2-NORM 
          0                11           2             4    7     1      -0.1090595440E-01       4    7    1        -0.6090146130E+00      0.7785242582E+00
          0                12           2             4    7     1      -0.6489582820E-02       4    7    1        -0.3624012989E+00      0.4605077158E+00
          0                13           2             4    7     1      -0.3861510678E-02       4    7    1        -0.2156425622E+00      0.2724233345E+00
          0                14           2             4    7     1      -0.2297671899E-02       4    7    1        -0.1283119581E+00      0.1611741057E+00
          0                15           1             4    7     1      -0.1367132590E-02       4    7    1        -0.7634671921E-01      0.9536526639E-01
          0                16           1             4    7     1      -0.8134407529E-03       4    7    1        -0.4542611815E-01      0.5643248429E-01
          0                17           1             4    7     1      -0.4839877067E-03       4    7    1        -0.2702798193E-01      0.3339733597E-01
          0                18           1             4    7     1      -0.2879626138E-03       4    7    1        -0.1608106368E-01      0.1976686370E-01
          0                19           1             4    7     1      -0.1713292117E-03       4    7    1        -0.9567739040E-02      0.1170055556E-01
          0                20           1             4    7     1      -0.1019343059E-03       4    7    1        -0.5692426352E-02      0.6926557036E-02
          0                21           1             4    7     1      -0.6064612474E-04       4    7    1        -0.3386719091E-02      0.4100812929E-02

    ------------------------------------------------
       NWT REQUIRED           21 OUTER ITERATIONS 
       AND A TOTAL OF         35 INNER ITERATIONS.
    ------------------------------------------------

 NO OUTPUT CONTROL FOR STRESS PERIOD   45   TIME STEP   30



 STREAM LISTING     PERIOD     45   STEP       30

 LAYER ROW COL. STREAM  RCH.  FLOW INTO     FLOW TO   FLOW OUT OF   OVRLND.     DIRECT     STREAM       STREAM     STREAM     STREAM   STREAMBED  STREAMBED
                SEG.NO.  NO.  STRM. RCH.    AQUIFER    STRM. RCH.    RUNOFF     PRECIP       ET          HEAD       DEPTH      WIDTH   CONDCTNC.   GRADIENT

   1    1    1     1     1    1.3875E+01  1.7894E-01   1.3696E+01  0.000E+00  0.000E+00  0.000E+00  1.09404E+03  9.876E-01  9.972E+00  4.487E-02  1.329E+00
   1    2    2     1     2    1.3696E+01  2.7573E-01   1.3420E+01  0.000E+00  0.000E+00  0.000E+00  1.08904E+03  9.829E-01  9.890E+00  6.923E-02  1.328E+00
   1    3    3     1     3    1.3420E+01  2.3380E-01   1.3186E+01  0.000E+00  0.000E+00  0.000E+00  1.08340E+03  9.775E-01  9.797E+00  5.878E-02  1.326E+00
   1    3    4     1     4    1.3186E+01  2.1419E-01   1.2972E+01  0.000E+00  0.000E+00  0.000E+00  1.07838E+03  9.727E-01  9.714E+00  5.391E-02  1.324E+00
   1    4    5     2     1    1.0972E+01  2.9101E-01   1.0681E+01  0.000E+00  0.000E+00  0.000E+00  1.07266E+03  7.309E-01  1.200E+01  7.800E-02  1.244E+00
   1    5    6     2     2    1.0681E+01  2.2322E-01   1.0458E+01  0.000E+00  0.000E+00  0.000E+00  1.06723E+03  7.204E-01  1.200E+01  6.000E-02  1.240E+00
   1    6    6     2     3    1.0458E+01  2.2267E-01   1.0235E+01  0.000E+00  0.000E+00  0.000E+00  1.06250E+03  7.112E-01  1.200E+01  6.000E-02  1.237E+00
   1    7    6     2     4    1.0235E+01  2.2212E-01   1.0013E+01  0.000E+00  0.000E+00  0.000E+00  1.05778E+03  7.020E-01  1.200E+01  6.000E-02  1.234E+00
   1    8    6     2     5    1.0013E+01  2.2157E-01   9.7913E+00  0.000E+00  0.000E+00  0.000E+00  1.05305E+03  6.928E-01  1.200E+01  6.000E-02  1.231E+00
   1    3    5     3     1    2.0000E+00  2.8252E-01   1.7175E+00  0.000E+00  0.000E+00  0.000E+00  1.07555E+03  1.909E+00  9.636E+00  7.227E-02  1.955E+00
   1    3    6     3     2    1.7175E+00  2.4905E-01   1.4684E+00  0.000E+00  0.000E+00  0.000E+00  1.07264E+03  1.727E+00  8.909E+00  6.682E-02  1.864E+00
   1    3    7     3     3    1.4684E+00  1.9718E-01   1.2712E+00  0.000E+00  0.000E+00  0.000E+00  1.06987E+03  1.555E+00  8.218E+00  5.547E-02  1.777E+00
   1    4    8     3     4    1.2712E+00  2.2567E-01   1.0456E+00  0.000E+00  0.000E+00  0.000E+00  1.06682E+03  1.364E+00  7.455E+00  6.709E-02  1.682E+00
   1    5    8     3     5    1.0456E+00  1.5790E-01   8.8768E-01  0.000E+00  0.000E+00  0.000E+00  1.06362E+03  1.164E+00  6.655E+00  4.991E-02  1.582E+00
   1    6    8     3     6    8.8768E-01  5.5980E-02   8.3170E-01  0.000E+00  0.000E+00  0.000E+00  1.06158E+03  1.036E+00  6.145E+00  1.844E-02  1.518E+00
   1    5   10     4     1    1.0000E+01  9.0919E-02   9.9091E+00  0.000E+00  0.000E+00  0.000E+00  1.07836E+03  6.368E-01  1.000E+01  2.500E-02  1.212E+00
   1    5    9     4     2    9.9091E+00  1.8158E-01   9.7275E+00  0.000E+00  0.000E+00  0.000E+00  1.07154E+03  6.315E-01  1.000E+01  5.000E-02  1.211E+00
   1    6    8     4     3    9.7275E+00  1.2689E-01   9.6006E+00  0.000E+00  0.000E+00  0.000E+00  1.06381E+03  6.256E-01  1.000E+01  3.500E-02  1.209E+00
   1    6    8     5     1    1.0432E+01  2.2686E-01   1.0205E+01  0.000E+00  0.000E+00  0.000E+00  1.05868E+03  6.790E-01  1.542E+01  6.166E-02  1.226E+00
   1    7    7     5     2    1.0205E+01  2.7894E-01   9.9265E+00  0.000E+00  0.000E+00  0.000E+00  1.05417E+03  6.732E-01  1.519E+01  7.594E-02  1.224E+00
   1    8    7     5     3    9.9265E+00  1.9221E-01   9.7343E+00  0.000E+00  0.000E+00  0.000E+00  1.04992E+03  6.676E-01  1.497E+01  5.241E-02  1.223E+00
   1    8    6     5     4    9.7343E+00  1.3577E-01   9.5985E+00  0.000E+00  0.000E+00  0.000E+00  1.04691E+03  6.637E-01  1.482E+01  3.706E-02  1.221E+00
   1    9    6     6     1    9.5985E+00  2.2097E-01   9.3776E+00  0.000E+00  0.000E+00  0.000E+00  1.04341E+03  6.828E-01  1.200E+01  6.000E-02  1.228E+00
   1   10    7     6     2    9.3776E+00  2.2039E-01   9.1572E+00  0.000E+00  0.000E+00  0.000E+00  1.03885E+03  6.732E-01  1.200E+01  6.000E-02  1.224E+00
   1   11    7     6     3    9.1572E+00  2.1981E-01   8.9374E+00  0.000E+00  0.000E+00  0.000E+00  1.03430E+03  6.636E-01  1.200E+01  6.000E-02  1.221E+00
   1   12    7     6     4    8.9374E+00  2.1923E-01   8.7181E+00  0.000E+00  0.000E+00  0.000E+00  1.02974E+03  6.539E-01  1.200E+01  6.000E-02  1.218E+00
   1   13    7     6     5    8.7181E+00  6.8611E-03   8.7113E+00  0.000E+00  0.000E+00  0.000E+00  1.02656E+03  6.488E-01  1.200E+01  2.400E-02  9.529E-02
   1   14    9     7     1    1.5000E+02  1.4301E+00   1.4857E+02  0.000E+00  0.000E+00  0.000E+00  1.03987E+03  2.287E+00  5.529E+01  5.593E-01  8.523E-01
   1   13    8     7     2    1.4857E+02  2.1103E+00   1.4646E+02  0.000E+00  0.000E+00  0.000E+00  1.03478E+03  2.278E+00  5.525E+01  6.147E-01  1.144E+00
   1   13    7     7     3    1.4646E+02  1.9064E+00   1.4455E+02  0.000E+00  0.000E+00  0.000E+00  1.02969E+03  2.267E+00  5.520E+01  5.583E-01  1.138E+00
   1   13    6     8     1    1.5326E+02  1.2360E+00   1.5203E+02  0.000E+00  0.000E+00  0.000E+00  1.02471E+03  2.835E+00  4.111E+01  4.190E-01  9.834E-01
   1   13    5     8     2    1.5203E+02  4.7414E-01   1.5155E+02  0.000E+00  0.000E+00  0.000E+00  1.01845E+03  2.829E+00  4.103E+01  4.181E-01  3.780E-01
   1   13    4     8     3    1.5155E+02 -1.4498E+00   1.5300E+02  0.000E+00  0.000E+00  0.000E+00  1.01221E+03  2.833E+00  4.108E+01  4.186E+00 -1.155E-01
   1   13    3     8     4    1.5300E+02 -3.1816E+00   1.5619E+02  0.000E+00  0.000E+00  0.000E+00  1.00597E+03  2.849E+00  4.131E+01  4.210E+00 -2.519E-01
   1   13    2     8     5    1.5619E+02 -2.5084E+00   1.5869E+02  0.000E+00  0.000E+00  0.000E+00  9.99743E+02  2.868E+00  4.159E+01  4.238E+00 -1.973E-01
   1   13    1     8     6    1.5869E+02 -1.9799E+00   1.6067E+02  0.000E+00  0.000E+00  0.000E+00  9.94759E+02  2.884E+00  4.181E+01  2.557E+00 -2.581E-01
   1    8    6     9     1    9.7913E+00  0.0000E+00   9.7913E+00  0.000E+00  0.000E+00  0.000E+00  1.08099E+03  2.238E+00  4.000E+00  0.000E+00  1.746E+00
   1    8    5     9     2    9.7913E+00  0.0000E+00   9.7913E+00  0.000E+00  0.000E+00  0.000E+00  1.08049E+03  2.238E+00  4.000E+00  0.000E+00  1.746E+00





UNSATURATED ZONE PACKAGE VOLUMETRIC BUDGET FOR  TIME STEP    30 STRESS PERIOD   45
  ------------------------------------------------------------------------------



     CUMULATIVE VOLUMES      L**3       RATES FOR THIS TIME STEP      L**3/T
     ------------------                 ------------------------

           IN:                                      IN:
           ---                                      ---
        INFILTRATION = 12665795441.3134          INFILTRATION =         610.6390

          OUT:                                     OUT:
          ----                                     ----
              UZF ET =  1669921527.0728                UZF ET =          49.5675
        UZF RECHARGE = 10103424300.3201          UZF RECHARGE =         137.6597

            IN - OUT =   892449613.9205              IN - OUT =         423.4118

          STORAGE:                                 STORAGE:
          --------                                 --------
      STORAGE CHANGE =   893693874.0883        STORAGE CHANGE =         423.4118

 PERCENT DISCREPANCY IS DIFFERENCE BETWEEN IN-OUT MINUS CHANGE IN STORAGE
 DIVIDED BY THE AVERAGE OF IN AND OUT TIMES 100

 PERCENT DISCREPANCY =          -0.00     PERCENT DISCREPANCY =           0.00






1
  VOLUMETRIC BUDGET FOR AGRICULTURAL FIELDS AT  END OF TIME STEP   30, STRESS PERIOD  45
  ------------------------------------------------------------------------------

     CUMULATIVE VOLUMES      L**3       RATES FOR THIS TIME STEP      L**3/T
     ------------------                 ------------------------

           IN:                                      IN:
           ---                                      ---
               AG WELLS  = 12004956160.0000                 AG WELLS  =         600.0000
      DIVERSION SEGMENTS =   562709056.0000        DIVERSION SEGMENTS =           9.7913
           GW IRRIGATION =           0.0000             GW IRRIGATION =           0.0000
           SW IRRIGATION =           0.0000             SW IRRIGATION =           0.0000
        SYSTEM LOSSES GW =           0.0000          SYSTEM LOSSES GW =           0.0000
        SYSTEM LOSSES SW =           0.0000          SYSTEM LOSSES SW =           0.0000

                TOTAL IN = 12567665664.0000                  TOTAL IN =         609.7913

          OUT:                                     OUT:
          ----                                     ----
               AG WELLS  =           0.0000                 AG WELLS  =           0.0000
      DIVERSION SEGMENTS =           0.0000        DIVERSION SEGMENTS =           0.0000
           GW IRRIGATION = 12004956160.0000             GW IRRIGATION =         600.0000
           SW IRRIGATION =   562719360.0000             SW IRRIGATION =           9.7915
        SYSTEM LOSSES GW =           0.0000          SYSTEM LOSSES GW =           0.0000
        SYSTEM LOSSES SW =           0.0000          SYSTEM LOSSES SW =           0.0000

               TOTAL OUT = 12567675904.0000                 TOTAL OUT =         609.7915

                IN - OUT =      -10240.0000                  IN - OUT =      -1.8311E-04

     PERCENT DISCREPANCY =          -0.00         PERCENT DISCREPANCY =          -0.00



1
  VOLUMETRIC BUDGET FOR ENTIRE MODEL AT END OF TIME STEP   30, STRESS PERIOD  45
  ------------------------------------------------------------------------------

     CUMULATIVE VOLUMES      L**3       RATES FOR THIS TIME STEP      L**3/T
     ------------------                 ------------------------

           IN:                                      IN:
           ---                                      ---
             STORAGE     = 10721479680.0000               STORAGE     =         458.9372
       CONSTANT HEAD     =           0.0000         CONSTANT HEAD     =           0.0000
     HEAD DEP BOUNDS     =    33546310.0000       HEAD DEP BOUNDS     =           0.2922
      STREAM LEAKAGE     =  1435383424.0000        STREAM LEAKAGE     =          12.5289
        UZF RECHARGE     = 10103424000.0000          UZF RECHARGE     =         137.6597
               GW ET     =           0.0000                 GW ET     =           0.0000
     SURFACE LEAKAGE     =           0.0000       SURFACE LEAKAGE     =           0.0000
           AG WELLS      =           0.0000             AG WELLS      =           0.0000

                TOTAL IN = 22293833728.0000                  TOTAL IN =         609.4180

          OUT:                                     OUT:
          ----                                     ----
             STORAGE     =  9178146816.0000               STORAGE     =       1.5465E-02
       CONSTANT HEAD     =           0.0000         CONSTANT HEAD     =           0.0000
     HEAD DEP BOUNDS     =    33322496.0000       HEAD DEP BOUNDS     =           0.2863
      STREAM LEAKAGE     =  1077249920.0000        STREAM LEAKAGE     =           9.1197
        UZF RECHARGE     =           0.0000          UZF RECHARGE     =           0.0000
               GW ET     =           0.0000                 GW ET     =           0.0000
     SURFACE LEAKAGE     =           0.0000       SURFACE LEAKAGE     =           0.0000
           AG WELLS      = 12004956160.0000             AG WELLS      =         600.0000

               TOTAL OUT = 22293676032.0000                 TOTAL OUT =         609.4214

                IN - OUT =      157696.0000                  IN - OUT =      -3.4790E-03

     PERCENT DISCREPANCY =           0.00         PERCENT DISCREPANCY =          -0.00






         TIME SUMMARY AT END OF TIME STEP   30 IN STRESS PERIOD   45
                    SECONDS     MINUTES      HOURS       DAYS        YEARS
                    -----------------------------------------------------------
   TIME STEP LENGTH  87667.      1461.1      24.352      1.0147     2.77799E-03
 STRESS PERIOD TIME 2.63000E+06  43833.      730.56      30.440     8.33397E-02
         TOTAL TIME 1.15805E+08 1.93009E+06  32168.      1340.3      3.6696    
1
1
                            STRESS PERIOD NO.   46, LENGTH =   2630000.    
                            -----------------------------------------------

                              NUMBER OF TIME STEPS =    30

                               MULTIPLIER FOR DELT =     1.000

                            INITIAL TIME STEP SIZE =   87666.66    

 REUSING NON-PARAMETER GHB CELLS FROM LAST STRESS PERIOD

      2 GHB CELLS

 REUSING STREAM SEGMENT DATA FROM LAST STRESS PERIOD



            AREAL INFILTRATION RATE
 READING ON UNIT   19 WITH FORMAT: (FREE)              

            1           2           3           4           5           6           7           8           9          10
 ........................................................................................................................
   1   1.0000E-10  2.0000E-10   0.000       0.000       0.000       0.000       0.000       0.000       0.000       0.000    
   2   2.0000E-10  1.0000E-10  2.0000E-10   0.000       0.000      8.0000E-10  8.0000E-10  5.0000E-10   0.000       0.000    
   3    0.000      5.0000E-10  1.0000E-10  1.0000E-10  8.0000E-10  8.0000E-10  5.0000E-10  5.0000E-10   0.000       0.000    
   4   8.0000E-10  5.0000E-10  1.0000E-10  1.0000E-10  1.0000E-10  1.0000E-10  1.0000E-10  1.0000E-10  2.0000E-10   0.000    
   5   8.0000E-10  5.0000E-10  1.0000E-10  1.0000E-10  1.0000E-10  1.0000E-10  1.0000E-10  1.0000E-10  1.0000E-10  1.0000E-10
   6   8.0000E-10  5.0000E-10  5.0000E-10  2.0000E-10  2.0000E-10  1.0000E-10  1.0000E-10  1.0000E-10  1.0000E-10  5.0000E-10
   7   8.0000E-10  5.0000E-10  5.0000E-10  2.0000E-10  2.0000E-10  1.0000E-10  1.0000E-10  2.0000E-10  2.0000E-10   0.000    
   8    0.000      5.0000E-10  5.0000E-10  2.0000E-10  2.0000E-10  1.0000E-10  1.0000E-10  2.0000E-10  5.0000E-10   0.000    
   9    0.000      5.0000E-10  5.0000E-10  2.0000E-10  2.0000E-10  1.0000E-10  1.0000E-10  2.0000E-10  5.0000E-10   0.000    
  10    0.000      5.0000E-10  5.0000E-10  2.0000E-10  2.0000E-10  1.0000E-10  1.0000E-10  2.0000E-10  5.0000E-10  8.0000E-10
  11    0.000      1.0000E-10  1.0000E-10  1.0000E-10  1.0000E-10  1.0000E-10  1.0000E-10  2.0000E-10  5.0000E-10   0.000    
  12   1.0000E-10  1.0000E-10  1.0000E-10  1.0000E-10  1.0000E-10  1.0000E-10  1.0000E-10  1.0000E-10  2.0000E-10   0.000    
  13   1.0000E-10  1.0000E-10  2.0000E-10  2.0000E-10  2.0000E-10  2.0000E-10  2.0000E-10  1.0000E-10  1.0000E-10   0.000    
  14    0.000      2.0000E-10  5.0000E-10  5.0000E-10  5.0000E-10  5.0000E-10  5.0000E-10  2.0000E-10  1.0000E-10   0.000    
  15    0.000       0.000      8.0000E-10  8.0000E-10  8.0000E-10  8.0000E-10   0.000       0.000       0.000       0.000    

                  ET RATE =  7.500000E-08

 USING ET EXTINCTION DEPTH FROM PREVIOUS STRESS PERIOD. CURRENT PERIOD IS:      46

 USING EXTINCTION WATER CONTENT FROM PREVIOUS STRESS PERIOD. CURRENT PERIOD IS:      46

 USING AIR ENTRY PRESSURE FROM PREVIOUS STRESS PERIOD. CURRENT PERIOD IS:      46

 USING ROOT PRESSURE HEAD FROM PREVIOUS STRESS PERIOD. CURRENT PERIOD IS:      46

 USING ROOT ACTIVITY FROM PREVIOUS STRESS PERIOD. CURRENT PERIOD IS:      46

 PROCESSING AG STRESS PERIOD DATA

 READING AG STRESS PERIOD DATA

 READING IRRIGATION SEGMENT

 READING IRRIGATION WELL

 READING SUPPLEMENTAL WELL

 END PROCESSING AG STRESS PERIOD DATA OPTIONS
 
 SOLVING FOR HEAD 
                                                   Max.-Head-Change                         Max.-Flux-Residual
  Residual-Control   Outer-Iter.   Inner-Iter.     Column Row Layer    Maximum-Head-Change  Column Row Layer    Maximum-Flux-Residual          L2-NORM 
          0                 1           2             4    6     1       0.1151160003E+01       4    6    1         0.6189936252E+02      0.1036105901E+03
          0                 2           2             4    8     1       0.3908259419E+00       4    8    1         0.2078976207E+02      0.3710012020E+02
          0                 3           2             4    8     1       0.2315653448E+00       4    8    1         0.1243751952E+02      0.1699200806E+02
          0                 4           2             4    8     1       0.1363766062E+00       4    8    1         0.7357409350E+01      0.9178710769E+01
          0                 5           2             4    8     1       0.8008452238E-01       4    8    1         0.4329786184E+01      0.5262616520E+01
          0                 6           2             4    8     1       0.4696230746E-01       4    8    1         0.2541663854E+01      0.3064541292E+01
          0                 7           2             4    8     1       0.2752039603E-01       4    8    1         0.1490194974E+01      0.1790894044E+01
          0                 8           2             4    8     1       0.1612186446E-01       4    8    1         0.8731954467E+00      0.1047357644E+01
          0                 9           2             4    8     1       0.9442877261E-02       4    8    1         0.5115098611E+00      0.6126075307E+00
          0                10           2             4    8     1       0.5530411627E-02       4    8    1         0.2995947328E+00      0.3583329737E+00
                                                   Max.-Head-Change                         Max.-Flux-Residual
  Residual-Control   Outer-Iter.   Inner-Iter.     Column Row Layer    Maximum-Head-Change  Column Row Layer    Maximum-Flux-Residual          L2-NORM 
          0                11           2             4    8     1       0.3238857981E-02       4    8    1         0.1754618858E+00      0.2096067084E+00
          0                12           2             4    8     1       0.1896776411E-02       4    8    1         0.1027578231E+00      0.1226139606E+00
          0                13           2             4    8     1       0.1110796005E-02       4    8    1         0.6017801116E-01      0.7172863000E-01
          0                14           2             4    8     1       0.6505017497E-03       4    8    1         0.3524156713E-01      0.4196269084E-01
          0                15           2             4    8     1       0.3809427006E-03       4    8    1         0.2063805845E-01      0.2455001998E-01
          0                16           2             4    8     1       0.2230839935E-03       4    8    1         0.1208591732E-01      0.1436340099E-01
          0                17           2             4    8     1       0.1306396554E-03       4    8    1         0.7077632894E-02      0.8403856680E-02
          0                18           1             4    8     1       0.7650324099E-04       4    8    1         0.4144711884E-02      0.4917166042E-02

    ------------------------------------------------
       NWT REQUIRED           18 OUTER ITERATIONS 
       AND A TOTAL OF         35 INNER ITERATIONS.
    ------------------------------------------------

 NO OUTPUT CONTROL FOR STRESS PERIOD   46   TIME STEP    1
 
 SOLVING FOR HEAD 
                                                   Max.-Head-Change                         Max.-Flux-Residual
  Residual-Control   Outer-Iter.   Inner-Iter.     Column Row Layer    Maximum-Head-Change  Column Row Layer    Maximum-Flux-Residual          L2-NORM 
          0                 1           2             5    6     1       0.1579990421E+01       5    6    1         0.8563611813E+02      0.1557156923E+03
          0                 2           2             4    7     1       0.7851068530E+00       4    7    1         0.4195939722E+02      0.6891404675E+02
          0                 3           2             4    6     1       0.2304233901E+00       4    6    1         0.1227757547E+02      0.2277451530E+02
          0                 4           2             4    6     1       0.1360345025E+00       4    6    1         0.7331024118E+01      0.9239984054E+01
          0                 5           2             4    6     1       0.7972121362E-01       4    6    1         0.4319713230E+01      0.4632325471E+01
          0                 6           2             4    6     1       0.4655294174E-01       4    6    1         0.2529170251E+01      0.2580231223E+01
          0                 7           2             4    6     1       0.2713689931E-01       4    6    1         0.1476234783E+01      0.1485285833E+01
          0                 8           2             4    6     1       0.1580516213E-01       4    6    1         0.8603444183E+00      0.8622388400E+00
          0                 9           2             4    6     1       0.9201375004E-02       4    6    1         0.5010299361E+00      0.5015384738E+00
          0                10           2             4    6     1       0.5355683855E-02       4    6    1         0.2916715264E+00      0.2918512699E+00
                                                   Max.-Head-Change                         Max.-Flux-Residual
  Residual-Control   Outer-Iter.   Inner-Iter.     Column Row Layer    Maximum-Head-Change  Column Row Layer    Maximum-Flux-Residual          L2-NORM 
          0                11           2             4    6     1       0.3116963553E-02       4    6    1         0.1697636290E+00      0.1698427159E+00
          0                12           2             4    6     1       0.1813952738E-02       4    6    1         0.9879971755E-01      0.9883954061E-01
          0                13           2             4    6     1       0.1055623385E-02       4    6    1         0.5749725368E-01      0.5751880572E-01
          0                14           2             4    6     1       0.6143084088E-03       4    6    1         0.3346021485E-01      0.3347231197E-01
          0                15           2             4    6     1       0.3574877298E-03       4    6    1         0.1947177233E-01      0.1947868680E-01
          0                16           2             4    6     1       0.2080340550E-03       4    6    1         0.1133130203E-01      0.1133528999E-01
          0                17           2             4    6     1       0.1210617752E-03       4    6    1         0.6594060667E-02      0.6596371078E-02
          0                18           1             4    6     1       0.7044972449E-04       4    6    1         0.3837297389E-02      0.3838638906E-02

    ------------------------------------------------
       NWT REQUIRED           18 OUTER ITERATIONS 
       AND A TOTAL OF         35 INNER ITERATIONS.
    ------------------------------------------------

 NO OUTPUT CONTROL FOR STRESS PERIOD   46   TIME STEP    2
 
 SOLVING FOR HEAD 
                                                   Max.-Head-Change                         Max.-Flux-Residual
  Residual-Control   Outer-Iter.   Inner-Iter.     Column Row Layer    Maximum-Head-Change  Column Row Layer    Maximum-Flux-Residual          L2-NORM 
          0                 1           2             4    8     1       0.1451648619E+01       4    8    1         0.7856358423E+02      0.1195332608E+03
          0                 2           2             5    7     1       0.6875288139E+00       5    7    1         0.3733185728E+02      0.6039810521E+02
          0                 3           2             5    7     1       0.3499916208E+00       5    7    1         0.1894052108E+02      0.2798501355E+02
          0                 4           2             5    6     1       0.1807612714E+00       5    6    1         0.9865443007E+01      0.1217319525E+02
          0                 5           2             5    6     1       0.1044378265E+00       5    6    1         0.5727605136E+01      0.6375905106E+01
          0                 6           2             5    6     1       0.6015084440E-01       5    6    1         0.3306467448E+01      0.3583905446E+01
          0                 7           2             5    6     1       0.3459140425E-01       5    6    1         0.1903598482E+01      0.2052141588E+01
          0                 8           2             5    6     1       0.1987827382E-01       5    6    1         0.1094507813E+01      0.1179924590E+01
          0                 9           2             5    6     1       0.1141926080E-01       5    6    1         0.6289115752E+00      0.6789812243E+00
          0                10           2             5    6     1       0.6558823727E-02       5    6    1         0.3612684113E+00      0.3907717935E+00
                                                   Max.-Head-Change                         Max.-Flux-Residual
  Residual-Control   Outer-Iter.   Inner-Iter.     Column Row Layer    Maximum-Head-Change  Column Row Layer    Maximum-Flux-Residual          L2-NORM 
          0                11           2             5    6     1       0.3766875493E-02       5    6    1         0.2074956997E+00      0.2249078517E+00
          0                12           2             5    6     1       0.2163329658E-02       5    6    1         0.1191682110E+00      0.1294502672E+00
          0                13           2             5    6     1       0.1242394217E-02       5    6    1         0.6843846004E-01      0.7451169929E-01
          0                14           2             5    6     1       0.7135031343E-03       5    6    1         0.3930397363E-01      0.4289175922E-01
          0                15           2             5    6     1       0.4097644665E-03       5    6    1         0.2257215346E-01      0.2469187535E-01
          0                16           2             5    6     1       0.2353291624E-03       5    6    1         0.1296318586E-01      0.1421565871E-01
          0                17           2             5    6     1       0.1351514818E-03       5    6    1         0.7444811087E-02      0.8184909625E-02
          0                18           1             5    6     1       0.7761931625E-04       5    6    1         0.4275621925E-02      0.4712981889E-02

    ------------------------------------------------
       NWT REQUIRED           18 OUTER ITERATIONS 
       AND A TOTAL OF         35 INNER ITERATIONS.
    ------------------------------------------------

 NO OUTPUT CONTROL FOR STRESS PERIOD   46   TIME STEP    3
 
 SOLVING FOR HEAD 
                                                   Max.-Head-Change                         Max.-Flux-Residual
  Residual-Control   Outer-Iter.   Inner-Iter.     Column Row Layer    Maximum-Head-Change  Column Row Layer    Maximum-Flux-Residual          L2-NORM 
          0                 1           2             4    7     1       0.1538453229E+01       4    7    1         0.8245122270E+02      0.1364818806E+03
          0                 2           2             4    6     1       0.6784095090E+00       4    6    1         0.3662796027E+02      0.4923353459E+02
          0                 3           2             4    6     1       0.2019546695E+00       4    6    1         0.1089008759E+02      0.1563346204E+02
          0                 4           2             4    8     1       0.6175460065E-01       4    8    1         0.3295037112E+01      0.5412370500E+01
          0                 5           2             4    8     1       0.3612551950E-01       4    8    1         0.1943959077E+01      0.2293805165E+01
          0                 6           2             4    8     1       0.1155746269E-01       4    8    1         0.6362451495E+00      0.1069667974E+01
          0                 7           2             4    8     1       0.6958336301E-02       4    8    1         0.3798644171E+00      0.4463977541E+00
          0                 8           2             4    8     1       0.4052964639E-02       4    8    1         0.2205439162E+00      0.2318047793E+00
          0                 9           2             4    8     1       0.2365694677E-02       4    8    1         0.1285082956E+00      0.1302744252E+00
          0                10           2             4    8     1       0.1382402010E-02       4    8    1         0.7502518884E-01      0.7528572271E-01
                                                   Max.-Head-Change                         Max.-Flux-Residual
  Residual-Control   Outer-Iter.   Inner-Iter.     Column Row Layer    Maximum-Head-Change  Column Row Layer    Maximum-Flux-Residual          L2-NORM 
          0                11           2             4    8     1       0.8082964247E-03       4    8    1         0.4384607406E-01      0.4388425786E-01
          0                12           2             4    8     1       0.4727624840E-03       4    8    1         0.2563806467E-01      0.2564622292E-01
          0                13           2             4    8     1       0.2765603861E-03       4    8    1         0.1499566909E-01      0.1499977322E-01
          0                14           2             4    8     1       0.1618001436E-03       4    8    1         0.8772380723E-02      0.8775248585E-02
          0                15           1             4    8     1       0.9466542556E-04       4    8    1         0.5132264406E-02      0.5134213706E-02

    ------------------------------------------------
       NWT REQUIRED           15 OUTER ITERATIONS 
       AND A TOTAL OF         29 INNER ITERATIONS.
    ------------------------------------------------

 NO OUTPUT CONTROL FOR STRESS PERIOD   46   TIME STEP    4
 
 SOLVING FOR HEAD 
                                                   Max.-Head-Change                         Max.-Flux-Residual
  Residual-Control   Outer-Iter.   Inner-Iter.     Column Row Layer    Maximum-Head-Change  Column Row Layer    Maximum-Flux-Residual          L2-NORM 
          0                 1           2             5    7     1       0.1665715502E+01       5    7    1         0.8922847602E+02      0.1541918939E+03
          0                 2           2             4    6     1      -0.1725545256E+01       4    6    1        -0.9454320598E+02      0.1918742812E+03
          0                 3           2             5    8     1      -0.8227595419E+00       5    8    1        -0.4592049789E+02      0.7568119489E+02
          0                 4           2             4    7     1      -0.4731657216E+00       4    7    1        -0.2623957996E+02      0.3521980256E+02
          0                 5           2             5    6     1      -0.1376228202E+00       5    6    1        -0.7760438806E+01      0.9192318088E+01
          0                 6           2             5    6     1      -0.8081331092E-01       5    6    1        -0.4568503414E+01      0.4720004305E+01
          0                 7           2             5    6     1      -0.4738347201E-01       5    6    1        -0.2681798920E+01      0.2707113447E+01
          0                 8           2             5    6     1      -0.2776133447E-01       5    6    1        -0.1572173527E+01      0.1576966402E+01
          0                 9           2             5    6     1      -0.1625864638E-01       5    6    1        -0.9210311778E+00      0.9220939837E+00
          0                10           2             5    6     1      -0.9520085459E-02       5    6    1        -0.5393799757E+00      0.5396776990E+00
                                                   Max.-Head-Change                         Max.-Flux-Residual
  Residual-Control   Outer-Iter.   Inner-Iter.     Column Row Layer    Maximum-Head-Change  Column Row Layer    Maximum-Flux-Residual          L2-NORM 
          0                11           2             5    6     1      -0.5573799369E-02       5    6    1        -0.3158172408E+00      0.3159252278E+00
          0                12           2             5    6     1      -0.3263149791E-02       5    6    1        -0.1848991994E+00      0.1849473888E+00
          0                13           2             5    6     1      -0.1910331133E-02       5    6    1        -0.1082459221E+00      0.1082703907E+00
          0                14           2             5    6     1      -0.1118334557E-02       5    6    1        -0.6336874577E-01      0.6338206908E-01
          0                15           2             5    6     1      -0.6546799997E-03       5    6    1        -0.3709630753E-01      0.3710382651E-01
          0                16           2             5    6     1      -0.3832499078E-03       5    6    1        -0.2171604725E-01      0.2172036797E-01
          0                17           2             5    6     1      -0.2243527635E-03       5    6    1        -0.1271237443E-01      0.1271488006E-01
          0                18           2             5    6     1      -0.1313341095E-03       5    6    1        -0.7441646358E-02      0.7443106125E-02
          0                19           1             5    6     1      -0.7688127511E-04       5    6    1        -0.4356203547E-02      0.4357055992E-02

    ------------------------------------------------
       NWT REQUIRED           19 OUTER ITERATIONS 
       AND A TOTAL OF         37 INNER ITERATIONS.
    ------------------------------------------------

 NO OUTPUT CONTROL FOR STRESS PERIOD   46   TIME STEP    5
 
 SOLVING FOR HEAD 
                                                   Max.-Head-Change                         Max.-Flux-Residual
  Residual-Control   Outer-Iter.   Inner-Iter.     Column Row Layer    Maximum-Head-Change  Column Row Layer    Maximum-Flux-Residual          L2-NORM 
          0                 1           2             4    7     1       0.1080687424E+01       4    7    1         0.5792376305E+02      0.9388838662E+02
          0                 2           2             4    6     1       0.3081887039E+00       4    6    1         0.1656621056E+02      0.2501331301E+02
          0                 3           2             4    6     1       0.8901148369E-01       4    6    1         0.4782647453E+01      0.7481185136E+01
          0                 4           2             4    8     1       0.2633057882E-01       4    8    1         0.1399835699E+01      0.2491210172E+01
          0                 5           2             4    8     1       0.1560317710E-01       4    8    1         0.8380446329E+00      0.1031166291E+01
          0                 6           2             4    8     1       0.9185798350E-02       4    8    1         0.4957630169E+00      0.5266746804E+00
          0                 7           2             4    8     1       0.5390803411E-02       4    8    1         0.2916228878E+00      0.2965925759E+00
          0                 8           2             4    8     1       0.3158844323E-02       4    8    1         0.1710748668E+00      0.1719475389E+00
          0                 9           2             4    8     1       0.1849613528E-02       4    8    1         0.1002253183E+00      0.1004075916E+00
          0                10           2             4    8     1       0.1082621484E-02       4    8    1         0.5867992342E-01      0.5872912085E-01
                                                   Max.-Head-Change                         Max.-Flux-Residual
  Residual-Control   Outer-Iter.   Inner-Iter.     Column Row Layer    Maximum-Head-Change  Column Row Layer    Maximum-Flux-Residual          L2-NORM 
          0                11           2             4    8     1       0.6335711903E-03       4    8    1         0.3434514220E-01      0.3436270654E-01
          0                12           2             4    8     1       0.3707460318E-03       4    8    1         0.2009899643E-01      0.2010680703E-01
          0                13           2             4    8     1       0.2169397239E-03       4    8    1         0.1176117449E-01      0.1176514411E-01
          0                14           2             4    8     1       0.1269382588E-03       4    8    1         0.6881940617E-02      0.6884105959E-02
          0                15           1             4    8     1       0.7427479999E-04       4    8    1         0.4026829298E-02      0.4028053071E-02

    ------------------------------------------------
       NWT REQUIRED           15 OUTER ITERATIONS 
       AND A TOTAL OF         29 INNER ITERATIONS.
    ------------------------------------------------

 NO OUTPUT CONTROL FOR STRESS PERIOD   46   TIME STEP    6
 
 SOLVING FOR HEAD 
                                                   Max.-Head-Change                         Max.-Flux-Residual
  Residual-Control   Outer-Iter.   Inner-Iter.     Column Row Layer    Maximum-Head-Change  Column Row Layer    Maximum-Flux-Residual          L2-NORM 
          0                 1           2             5    7     1       0.1662086909E+01       5    7    1         0.8926721705E+02      0.1527076967E+03
          0                 2           2             5    6     1       0.5625225273E+00       5    6    1         0.3057863128E+02      0.5809841564E+02
          0                 3           2             4    7     1       0.3245115104E+00       4    7    1         0.1742291259E+02      0.2518659826E+02
          0                 4           2             4    7     1       0.1910444907E+00       4    7    1         0.1031129531E+02      0.1322926698E+02
          0                 5           2             4    7     1       0.1120985910E+00       4    7    1         0.6065032600E+01      0.7504939795E+01
          0                 6           2             4    7     1       0.6567842007E-01       4    7    1         0.3557303843E+01      0.4348658433E+01
          0                 7           2             4    7     1       0.3845785761E-01       4    7    1         0.2083842546E+01      0.2532893304E+01
          0                 8           2             4    7     1       0.2251502775E-01       4    7    1         0.1220103485E+01      0.1477356166E+01
          0                 9           2             4    7     1       0.1318179012E-01       4    7    1         0.7142934818E+00      0.8622006921E+00
          0                10           2             4    7     1       0.7718512261E-02       4    7    1         0.4181984719E+00      0.5032571120E+00
                                                   Max.-Head-Change                         Max.-Flux-Residual
  Residual-Control   Outer-Iter.   Inner-Iter.     Column Row Layer    Maximum-Head-Change  Column Row Layer    Maximum-Flux-Residual          L2-NORM 
          0                11           2             4    7     1       0.4520332918E-02       4    7    1         0.2448786034E+00      0.2938791244E+00
          0                12           2             4    7     1       0.2647855161E-02       4    7    1         0.1434165874E+00      0.1716891094E+00
          0                13           2             4    7     1       0.1551347169E-02       4    7    1         0.8401098157E-01      0.1003498025E+00
          0                14           2             4    7     1       0.9091092769E-03       4    7    1         0.4922255749E-01      0.5867986845E-01
          0                15           2             4    7     1       0.5328629893E-03       4    7    1         0.2884594377E-01      0.3432882424E-01
          0                16           1             4    7     1       0.3123969687E-03       4    7    1         0.1690821201E-01      0.2009200548E-01
          0                17           1             4    7     1       0.1831845910E-03       4    7    1         0.9912935993E-02      0.1176465013E-01
          0                18           1             4    7     1       0.1074387285E-03       4    7    1         0.5812964246E-02      0.6891638796E-02
          0                19           1             4    7     1       0.6302624064E-04       4    7    1         0.3409436698E-02      0.4038776687E-02

    ------------------------------------------------
       NWT REQUIRED           19 OUTER ITERATIONS 
       AND A TOTAL OF         34 INNER ITERATIONS.
    ------------------------------------------------

 NO OUTPUT CONTROL FOR STRESS PERIOD   46   TIME STEP    7
 
 SOLVING FOR HEAD 
                                                   Max.-Head-Change                         Max.-Flux-Residual
  Residual-Control   Outer-Iter.   Inner-Iter.     Column Row Layer    Maximum-Head-Change  Column Row Layer    Maximum-Flux-Residual          L2-NORM 
          0                 1           2             4    6     1       0.1570196035E+01       4    6    1         0.8530896082E+02      0.1067781799E+03
          0                 2           2             4    8     1       0.5249936161E+00       4    8    1         0.2835177536E+02      0.4330536172E+02
          0                 3           2             4    8     1       0.3079329877E+00       4    8    1         0.1666394075E+02      0.2187516950E+02
          0                 4           2             4    8     1       0.1803582903E+00       4    8    1         0.9771081089E+01      0.1225641771E+02
          0                 5           2             4    8     1       0.1055606336E+00       4    8    1         0.5722008194E+01      0.7079226754E+01
          0                 6           2             4    8     1       0.6176013500E-01       4    8    1         0.3348716938E+01      0.4119881286E+01
          0                 7           2             4    8     1       0.3612703580E-01       4    8    1         0.1959144649E+01      0.2401943210E+01
          0                 8           2             4    8     1       0.2113066776E-01       4    8    1         0.1145991478E+01      0.1401009607E+01
          0                 9           2             4    8     1       0.1235863597E-01       4    8    1         0.6702818794E+00      0.8173198308E+00
          0                10           2             4    8     1       0.7227934473E-02       4    8    1         0.3920235692E+00      0.4768579802E+00
                                                   Max.-Head-Change                         Max.-Flux-Residual
  Residual-Control   Outer-Iter.   Inner-Iter.     Column Row Layer    Maximum-Head-Change  Column Row Layer    Maximum-Flux-Residual          L2-NORM 
          0                11           2             4    8     1       0.4227165665E-02       4    8    1         0.2292737342E+00      0.2782445867E+00
          0                12           2             4    8     1       0.2472169932E-02       4    8    1         0.1340875206E+00      0.1623690044E+00
          0                13           2             4    8     1       0.1445781698E-02       4    8    1         0.7841816483E-01      0.9475813902E-01
          0                14           2             4    8     1       0.8455186958E-03       4    8    1         0.4586067869E-01      0.5530506854E-01
          0                15           2             4    8     1       0.4944703108E-03       4    8    1         0.2682010319E-01      0.3228094654E-01
          0                16           2             4    8     1       0.2891705107E-03       4    8    1         0.1568472712E-01      0.1884336178E-01
          0                17           2             4    8     1       0.1691082276E-03       4    8    1         0.9172554343E-02      0.1100016659E-01
          0                18           1             4    8     1       0.9889462898E-04       4    8    1         0.5364146070E-02      0.6421950261E-02

    ------------------------------------------------
       NWT REQUIRED           18 OUTER ITERATIONS 
       AND A TOTAL OF         35 INNER ITERATIONS.
    ------------------------------------------------

 NO OUTPUT CONTROL FOR STRESS PERIOD   46   TIME STEP    8
 
 SOLVING FOR HEAD 
                                                   Max.-Head-Change                         Max.-Flux-Residual
  Residual-Control   Outer-Iter.   Inner-Iter.     Column Row Layer    Maximum-Head-Change  Column Row Layer    Maximum-Flux-Residual          L2-NORM 
          0                 1           2             4    7     1       0.1673991136E+01       4    7    1         0.9006825479E+02      0.1209094166E+03
          0                 2           2             4    7     1       0.4850509208E+00       4    7    1         0.2592045114E+02      0.4094708888E+02
          0                 3           2             4    6     1       0.2717459802E+00       4    6    1         0.1463791386E+02      0.1748293712E+02
          0                 4           2             4    6     1       0.1591847940E+00       4    6    1         0.8629695120E+01      0.9085961807E+01
          0                 5           2             4    6     1       0.9286493519E-01       4    6    1         0.5049714677E+01      0.5125519696E+01
          0                 6           2             4    6     1       0.5406763786E-01       4    6    1         0.2944387212E+01      0.2958579669E+01
          0                 7           2             4    6     1       0.3144869581E-01       4    6    1         0.1713849969E+01      0.1717079078E+01
          0                 8           2             4    6     1       0.1828364483E-01       4    6    1         0.9967490032E+00      0.9976904631E+00
          0                 9           2             4    6     1       0.1062729215E-01       4    6    1         0.5794560954E+00      0.5798067743E+00
          0                10           2             4    6     1       0.6176370505E-02       4    6    1         0.3367968425E+00      0.3369545732E+00
                                                   Max.-Head-Change                         Max.-Flux-Residual
  Residual-Control   Outer-Iter.   Inner-Iter.     Column Row Layer    Maximum-Head-Change  Column Row Layer    Maximum-Flux-Residual          L2-NORM 
          0                11           2             4    6     1       0.3589384359E-02       4    6    1         0.1957369006E+00      0.1958168406E+00
          0                12           2             4    6     1       0.2085906116E-02       4    6    1         0.1137513076E+00      0.1137946198E+00
          0                13           2             4    6     1       0.1212170552E-02       4    6    1         0.6610430737E-01      0.6612860851E-01
          0                14           2             4    6     1       0.7044170104E-03       4    6    1         0.3841475204E-01      0.3842862990E-01
          0                15           2             4    6     1       0.4093497484E-03       4    6    1         0.2232357784E-01      0.2233157334E-01
          0                16           2             4    6     1       0.2378803247E-03       4    6    1         0.1297263888E-01      0.1297726550E-01
          0                17           2             4    6     1       0.1382363226E-03       4    6    1         0.7538626793E-02      0.7541309767E-02
          0                18           1             4    6     1       0.8033145837E-04       4    6    1         0.4380824494E-02      0.4382382053E-02

    ------------------------------------------------
       NWT REQUIRED           18 OUTER ITERATIONS 
       AND A TOTAL OF         35 INNER ITERATIONS.
    ------------------------------------------------

 NO OUTPUT CONTROL FOR STRESS PERIOD   46   TIME STEP    9
 
 SOLVING FOR HEAD 
                                                   Max.-Head-Change                         Max.-Flux-Residual
  Residual-Control   Outer-Iter.   Inner-Iter.     Column Row Layer    Maximum-Head-Change  Column Row Layer    Maximum-Flux-Residual          L2-NORM 
          0                 1           2             4    6     1       0.2157901358E+00       4    6    1         0.1172153585E+02      0.1710370901E+02
          0                 2           2             4    6     1       0.5066093903E-01       4    6    1         0.2791203111E+01      0.3481147202E+01
          0                 3           2             4    6     1       0.2088017828E-01       4    6    1         0.1124838289E+01      0.1349397279E+01
          0                 4           2             4    6     1       0.5601889073E-02       4    6    1         0.3048642944E+00      0.3388389370E+00
          0                 5           2             4    7     1      -0.2238287409E+00       5    6    1        -0.1205152384E+02      0.2945782182E+02
          0                 6           2             4    6     1      -0.6721251088E-01       4    6    1        -0.3749192490E+01      0.4640561365E+01
          0                 7           2             4    6     1      -0.2033102564E-01       4    6    1        -0.1142197541E+01      0.1151360917E+01
          0                 8           2             4    6     1      -0.6149751160E-02       4    6    1        -0.3448238524E+00      0.3448860017E+00
          0                 9           2             4    6     1      -0.1860138652E-02       4    6    1        -0.1043229487E+00      0.1043246287E+00
          0                10           2             4    6     1      -0.5626307095E-03       4    6    1        -0.3155365810E-01      0.3155421285E-01
                                                   Max.-Head-Change                         Max.-Flux-Residual
  Residual-Control   Outer-Iter.   Inner-Iter.     Column Row Layer    Maximum-Head-Change  Column Row Layer    Maximum-Flux-Residual          L2-NORM 
          0                11           2             4    6     1      -0.1701735651E-03       4    6    1        -0.9543648952E-02      0.9543816028E-02
          0                12           1             4    6     1      -0.5146966866E-04       4    6    1        -0.2886487323E-02      0.2886537892E-02

    ------------------------------------------------
       NWT REQUIRED           12 OUTER ITERATIONS 
       AND A TOTAL OF         23 INNER ITERATIONS.
    ------------------------------------------------

 NO OUTPUT CONTROL FOR STRESS PERIOD   46   TIME STEP   10
 
 SOLVING FOR HEAD 
                                                   Max.-Head-Change                         Max.-Flux-Residual
  Residual-Control   Outer-Iter.   Inner-Iter.     Column Row Layer    Maximum-Head-Change  Column Row Layer    Maximum-Flux-Residual          L2-NORM 
          0                 1           2             4    5     1       0.8611480255E-01       5    6    1        -0.4751111952E+01      0.1180690302E+02
          0                 2           2             4    6     1      -0.9896940434E-02       4    6    1        -0.5373686806E+00      0.1282660472E+01
          0                 3           2             4    6     1      -0.2800229774E-02       4    6    1        -0.1529622691E+00      0.1733213059E+00
          0                 4           2             4    6     1      -0.7922955155E-03       4    6    1        -0.4321669149E-01      0.4334666333E-01
          0                 5           2             4    6     1      -0.2241715588E-03       4    6    1        -0.1222904629E-01      0.1222946381E-01
          0                 6           1             4    6     1      -0.6342694405E-04       4    6    1        -0.3459948199E-02      0.3460089198E-02

    ------------------------------------------------
       NWT REQUIRED            6 OUTER ITERATIONS 
       AND A TOTAL OF         11 INNER ITERATIONS.
    ------------------------------------------------

 NO OUTPUT CONTROL FOR STRESS PERIOD   46   TIME STEP   11
 
 SOLVING FOR HEAD 
                                                   Max.-Head-Change                         Max.-Flux-Residual
  Residual-Control   Outer-Iter.   Inner-Iter.     Column Row Layer    Maximum-Head-Change  Column Row Layer    Maximum-Flux-Residual          L2-NORM 
          0                 1           2             4    5     1       0.8234522575E-01       4    5    1         0.4460671063E+01      0.1126294531E+02
          0                 2           2             4    7     1       0.1038462932E-01       4    7    1         0.5717556030E+00      0.1325851130E+01
          0                 3           2             4    7     1       0.2891917997E-02       4    7    1         0.1597485501E+00      0.2226222215E+00
          0                 4           2             4    7     1       0.8054313079E-03       4    7    1         0.4445122725E-01      0.5810860371E-01
          0                 5           2             4    7     1       0.2243469022E-03       4    7    1         0.1238119747E-01      0.1611460454E-01
          0                 6           1             4    7     1       0.6249744412E-04       4    7    1         0.3448765405E-02      0.4475265244E-02

    ------------------------------------------------
       NWT REQUIRED            6 OUTER ITERATIONS 
       AND A TOTAL OF         11 INNER ITERATIONS.
    ------------------------------------------------

 NO OUTPUT CONTROL FOR STRESS PERIOD   46   TIME STEP   12
 
 SOLVING FOR HEAD 
                                                   Max.-Head-Change                         Max.-Flux-Residual
  Residual-Control   Outer-Iter.   Inner-Iter.     Column Row Layer    Maximum-Head-Change  Column Row Layer    Maximum-Flux-Residual          L2-NORM 
          0                 1           2             4    5     1       0.7878386101E-01       4    5    1         0.4266387813E+01      0.1078094782E+02
          0                 2           2             4    7     1       0.1297864515E-01       4    7    1         0.7131121697E+00      0.1328450044E+01
          0                 3           2             4    7     1       0.3631531591E-02       4    7    1         0.1998286972E+00      0.2436118681E+00
          0                 4           2             4    7     1       0.1016375222E-02       4    7    1         0.5589313248E-01      0.6477783728E-01
          0                 5           2             4    7     1       0.2845274531E-03       4    7    1         0.1564409905E-01      0.1801234502E-01
          0                 6           1             4    7     1       0.7967139207E-04       4    7    1         0.4379769437E-02      0.5014692839E-02

    ------------------------------------------------
       NWT REQUIRED            6 OUTER ITERATIONS 
       AND A TOTAL OF         11 INNER ITERATIONS.
    ------------------------------------------------

 NO OUTPUT CONTROL FOR STRESS PERIOD   46   TIME STEP   13
 
 SOLVING FOR HEAD 
                                                   Max.-Head-Change                         Max.-Flux-Residual
  Residual-Control   Outer-Iter.   Inner-Iter.     Column Row Layer    Maximum-Head-Change  Column Row Layer    Maximum-Flux-Residual          L2-NORM 
          0                 1           2             4    5     1       0.7541852797E-01       4    5    1         0.4082759390E+01      0.1013597967E+02
          0                 2           2             4    7     1       0.1179487564E-01       4    7    1         0.6464554989E+00      0.1247976684E+01
          0                 3           2             4    6     1      -0.1164225307E-01       4    6    1        -0.6224541150E+00      0.1214949929E+01
          0                 4           2             4    6     1      -0.5303862345E-01       4    6    1        -0.2813290482E+01      0.6744448758E+01
          0                 5           2             4    8     1      -0.9393086208E-02       4    7    1        -0.5141075544E+00      0.1095310881E+01
          0                 6           2             4    8     1      -0.2902037389E-02       4    8    1        -0.1604484570E+00      0.2313727526E+00
          0                 7           1             4    7     1      -0.8743084615E-03       4    7    1        -0.4908579217E-01      0.4939568382E-01
          0                 8           1             4    7     1      -0.2645322078E-03       4    7    1        -0.1482974306E-01      0.1483162887E-01
          0                 9           1             4    7     1      -0.8003557065E-04       4    7    1        -0.4487659557E-02      0.4487690833E-02

    ------------------------------------------------
       NWT REQUIRED            9 OUTER ITERATIONS 
       AND A TOTAL OF         15 INNER ITERATIONS.
    ------------------------------------------------

 NO OUTPUT CONTROL FOR STRESS PERIOD   46   TIME STEP   14
 
 SOLVING FOR HEAD 
                                                   Max.-Head-Change                         Max.-Flux-Residual
  Residual-Control   Outer-Iter.   Inner-Iter.     Column Row Layer    Maximum-Head-Change  Column Row Layer    Maximum-Flux-Residual          L2-NORM 
          0                 1           2             4    5     1       0.7120343601E-01       4    5    1         0.3861086775E+01      0.9623317143E+01
          0                 2           2             4    7     1       0.1147467480E-01       4    7    1         0.6276000754E+00      0.1265283479E+01
          0                 3           2             4    7     1       0.3270151395E-02       4    7    1         0.1770238491E+00      0.2209393258E+00
          0                 4           2             4    7     1       0.9394756340E-03       4    7    1         0.5062040271E-01      0.6029084245E-01
          0                 5           2             4    7     1       0.2700987114E-03       4    7    1         0.1456553518E-01      0.1748722471E-01
          0                 6           1             4    7     1       0.7770857788E-04       4    7    1         0.4186917119E-02      0.5086556189E-02

    ------------------------------------------------
       NWT REQUIRED            6 OUTER ITERATIONS 
       AND A TOTAL OF         11 INNER ITERATIONS.
    ------------------------------------------------

 NO OUTPUT CONTROL FOR STRESS PERIOD   46   TIME STEP   15
 
 SOLVING FOR HEAD 
                                                   Max.-Head-Change                         Max.-Flux-Residual
  Residual-Control   Outer-Iter.   Inner-Iter.     Column Row Layer    Maximum-Head-Change  Column Row Layer    Maximum-Flux-Residual          L2-NORM 
          0                 1           2             4    5     1       0.6819477828E-01       4    5    1         0.3689604403E+01      0.9125541709E+01
          0                 2           2             4    6     1      -0.1893375040E+01       4    6    1        -0.1003003179E+03      0.2443836343E+03
          0                 3           2             5    6     1       0.1768638717E+00       5    6    1         0.9798221270E+01      0.1690143674E+02
          0                 4           2             5    6     1      -0.1204502504E-01       5    6    1        -0.6885508069E+00      0.1034116881E+01
          0                 5           2             5    6     1       0.4792787984E-03       5    6    1         0.2826592542E-01      0.3919446278E-01
          0                 6           1             5    6     1      -0.5909723067E-05       5    6    1        -0.3595005635E-03      0.5015679744E-03

    ------------------------------------------------
       NWT REQUIRED            6 OUTER ITERATIONS 
       AND A TOTAL OF         11 INNER ITERATIONS.
    ------------------------------------------------

 NO OUTPUT CONTROL FOR STRESS PERIOD   46   TIME STEP   16
 
 SOLVING FOR HEAD 
                                                   Max.-Head-Change                         Max.-Flux-Residual
  Residual-Control   Outer-Iter.   Inner-Iter.     Column Row Layer    Maximum-Head-Change  Column Row Layer    Maximum-Flux-Residual          L2-NORM 
          0                 1           2             5    8     1       0.4565954817E-01       5    8    1         0.2463361620E+01      0.5341322315E+01
          0                 2           2             5    8     1      -0.5579681774E-01       5    8    1        -0.3073071769E+01      0.7169278339E+01
          0                 3           2             4    6     1       0.5139798049E-02       4    6    1         0.2818189045E+00      0.5403565727E+00
          0                 4           2             4    6     1      -0.3500017264E-03       4    6    1        -0.1991465293E-01      0.2734978613E-01
          0                 5           1             4    6     1       0.1392689371E-04       4    6    1         0.8219403842E-03      0.8536911504E-03

    ------------------------------------------------
       NWT REQUIRED            5 OUTER ITERATIONS 
       AND A TOTAL OF          9 INNER ITERATIONS.
    ------------------------------------------------

 NO OUTPUT CONTROL FOR STRESS PERIOD   46   TIME STEP   17
 
 SOLVING FOR HEAD 
                                                   Max.-Head-Change                         Max.-Flux-Residual
  Residual-Control   Outer-Iter.   Inner-Iter.     Column Row Layer    Maximum-Head-Change  Column Row Layer    Maximum-Flux-Residual          L2-NORM 
          0                 1           2             5    8     1       0.4554121485E-01       5    8    1         0.2455924658E+01      0.5187668090E+01
          0                 2           2             5    8     1      -0.4429991930E-02       5    8    1        -0.2455976712E+00      0.5187672619E+00
          0                 3           2             5    8     1       0.3016653080E-03       5    8    1         0.1719179516E-01      0.3631348837E-01
          0                 4           1             5    8     1      -0.1200354796E-04       5    8    1        -0.7031456271E-03      0.1485266076E-02

    ------------------------------------------------
       NWT REQUIRED            4 OUTER ITERATIONS 
       AND A TOTAL OF          7 INNER ITERATIONS.
    ------------------------------------------------

 NO OUTPUT CONTROL FOR STRESS PERIOD   46   TIME STEP   18
 
 SOLVING FOR HEAD 
                                                   Max.-Head-Change                         Max.-Flux-Residual
  Residual-Control   Outer-Iter.   Inner-Iter.     Column Row Layer    Maximum-Head-Change  Column Row Layer    Maximum-Flux-Residual          L2-NORM 
          0                 1           2             5    8     1       0.4393531843E-01       5    8    1         0.2366538914E+01      0.5056419207E+01
          0                 2           2             5    8     1      -0.4273776602E-02       5    8    1        -0.2366587087E+00      0.5056424741E+00
          0                 3           2             5    8     1       0.2910276778E-03       5    8    1         0.1656607128E-01      0.3539476323E-01
          0                 4           1             5    8     1      -0.1158026660E-04       5    8    1        -0.6775534630E-03      0.1447643262E-02

    ------------------------------------------------
       NWT REQUIRED            4 OUTER ITERATIONS 
       AND A TOTAL OF          7 INNER ITERATIONS.
    ------------------------------------------------

 NO OUTPUT CONTROL FOR STRESS PERIOD   46   TIME STEP   19
 
 SOLVING FOR HEAD 
                                                   Max.-Head-Change                         Max.-Flux-Residual
  Residual-Control   Outer-Iter.   Inner-Iter.     Column Row Layer    Maximum-Head-Change  Column Row Layer    Maximum-Flux-Residual          L2-NORM 
          0                 1           2             5    8     1       0.4243440040E-01       5    8    1         0.2283088762E+01      0.4933970788E+01
          0                 2           2             5    8     1      -0.4127773094E-02       5    8    1        -0.2283133290E+00      0.4933977004E+00
          0                 3           2             5    8     1       0.2810828051E-03       5    8    1         0.1598174937E-01      0.3453749255E-01
          0                 4           1             5    8     1      -0.1118207569E-04       5    8    1        -0.6535107173E-03      0.1412393659E-02

    ------------------------------------------------
       NWT REQUIRED            4 OUTER ITERATIONS 
       AND A TOTAL OF          7 INNER ITERATIONS.
    ------------------------------------------------

 NO OUTPUT CONTROL FOR STRESS PERIOD   46   TIME STEP   20
 
 SOLVING FOR HEAD 
                                                   Max.-Head-Change                         Max.-Flux-Residual
  Residual-Control   Outer-Iter.   Inner-Iter.     Column Row Layer    Maximum-Head-Change  Column Row Layer    Maximum-Flux-Residual          L2-NORM 
          0                 1           2             5    8     1       0.4103008120E-01       5    8    1         0.2205097120E+01      0.4819545240E+01
          0                 2           2             4    6     1      -0.1889323260E+01       5    8    1        -0.1002205138E+03      0.2451904110E+03
          0                 3           2             4    6     1       0.1837494112E+00       4    6    1         0.1009019898E+02      0.1857995454E+02
          0                 4           2             4    6     1      -0.1251332309E-01       4    6    1        -0.7125751987E+00      0.9539463488E+00
          0                 5           2             4    6     1       0.4979121107E-03       4    6    1         0.2939066129E-01      0.3040627412E-01
          0                 6           1             4    6     1      -0.6139482074E-05       4    6    1        -0.3755023688E-03      0.3960096112E-03

    ------------------------------------------------
       NWT REQUIRED            6 OUTER ITERATIONS 
       AND A TOTAL OF         11 INNER ITERATIONS.
    ------------------------------------------------

 NO OUTPUT CONTROL FOR STRESS PERIOD   46   TIME STEP   21
 
 SOLVING FOR HEAD 
                                                   Max.-Head-Change                         Max.-Flux-Residual
  Residual-Control   Outer-Iter.   Inner-Iter.     Column Row Layer    Maximum-Head-Change  Column Row Layer    Maximum-Flux-Residual          L2-NORM 
          0                 1           2             5    8     1       0.9312802257E-01       5    8    1         0.5077575062E+01      0.7778823340E+01
          0                 2           2             5    8     1      -0.6041412009E-01       5    8    1        -0.3334496680E+01      0.7629428406E+01
          0                 3           2             5    8     1       0.4113951728E-02       5    8    1         0.2334131572E+00      0.5340383387E+00
          0                 4           2             5    8     1      -0.1636981103E-03       5    8    1        -0.9546619344E-02      0.2184148775E-01
          0                 5           1             5    8     1       0.2018468361E-05       5    8    1         0.1209850795E-03      0.2769503051E-03

    ------------------------------------------------
       NWT REQUIRED            5 OUTER ITERATIONS 
       AND A TOTAL OF          9 INNER ITERATIONS.
    ------------------------------------------------

 NO OUTPUT CONTROL FOR STRESS PERIOD   46   TIME STEP   22
 
 SOLVING FOR HEAD 
                                                   Max.-Head-Change                         Max.-Flux-Residual
  Residual-Control   Outer-Iter.   Inner-Iter.     Column Row Layer    Maximum-Head-Change  Column Row Layer    Maximum-Flux-Residual          L2-NORM 
          0                 1           2             5    8     1       0.9036827347E-01       5    8    1         0.4922607672E+01      0.7676797413E+01
          0                 2           2             5    8     1      -0.8790489850E-02       5    8    1        -0.4922691978E+00      0.7676805461E+00
          0                 3           2             5    8     1       0.5985985869E-03       5    8    1         0.3445877896E-01      0.5373746293E-01
          0                 4           1             5    8     1      -0.2381880335E-04       5    8    1        -0.1409366400E-02      0.2197850590E-02

    ------------------------------------------------
       NWT REQUIRED            4 OUTER ITERATIONS 
       AND A TOTAL OF          7 INNER ITERATIONS.
    ------------------------------------------------

 NO OUTPUT CONTROL FOR STRESS PERIOD   46   TIME STEP   23
 
 SOLVING FOR HEAD 
                                                   Max.-Head-Change                         Max.-Flux-Residual
  Residual-Control   Outer-Iter.   Inner-Iter.     Column Row Layer    Maximum-Head-Change  Column Row Layer    Maximum-Flux-Residual          L2-NORM 
          0                 1           2             5    8     1       0.8630284015E-01       5    8    1         0.4695939007E+01      0.7447688302E+01
          0                 2           2             5    8     1      -0.8395026766E-02       5    8    1        -0.4696018183E+00      0.7447701183E+00
          0                 3           2             5    8     1       0.5716690893E-03       5    8    1         0.3287206664E-01      0.5213375346E-01
          0                 4           1             5    8     1      -0.2274725298E-04       5    8    1        -0.1344469732E-02      0.2132409162E-02

    ------------------------------------------------
       NWT REQUIRED            4 OUTER ITERATIONS 
       AND A TOTAL OF          7 INNER ITERATIONS.
    ------------------------------------------------

 NO OUTPUT CONTROL FOR STRESS PERIOD   46   TIME STEP   24
 
 SOLVING FOR HEAD 
                                                   Max.-Head-Change                         Max.-Flux-Residual
  Residual-Control   Outer-Iter.   Inner-Iter.     Column Row Layer    Maximum-Head-Change  Column Row Layer    Maximum-Flux-Residual          L2-NORM 
          0                 1           2             5    8     1       0.8251059581E-01       5    8    1         0.4484679326E+01      0.7236450017E+01
          0                 2           2             5    8     1      -0.8026159849E-02       5    8    1        -0.4484765699E+00      0.7236493851E+00
          0                 3           2             5    8     1       0.5465148675E-03       5    8    1         0.3139127646E-01      0.5065081131E-01
          0                 4           1             5    8     1      -0.2216206606E-04       5    8    1        -0.1308083420E-02      0.2125840186E-02

    ------------------------------------------------
       NWT REQUIRED            4 OUTER ITERATIONS 
       AND A TOTAL OF          7 INNER ITERATIONS.
    ------------------------------------------------

 NO OUTPUT CONTROL FOR STRESS PERIOD   46   TIME STEP   25
 
 SOLVING FOR HEAD 
                                                   Max.-Head-Change                         Max.-Flux-Residual
  Residual-Control   Outer-Iter.   Inner-Iter.     Column Row Layer    Maximum-Head-Change  Column Row Layer    Maximum-Flux-Residual          L2-NORM 
          0                 1           2             5    8     1       0.7897034030E-01       5    8    1         0.4287623625E+01      0.7041197861E+01
          0                 2           2             4    7     1      -0.1866609744E+01       5    8    1        -0.1004287693E+03      0.2455955383E+03
          0                 3           2             4    7     1       0.1270897373E+00       5    8    1         0.7027699736E+01      0.1718833493E+02
          0                 4           2             4    7     1      -0.5057112576E-02       5    8    1        -0.2873069127E+00      0.7030211142E+00
          0                 5           1             4    7     1       0.6235623937E-04       4    8    1         0.3637431224E-02      0.8934920474E-02

    ------------------------------------------------
       NWT REQUIRED            5 OUTER ITERATIONS 
       AND A TOTAL OF          9 INNER ITERATIONS.
    ------------------------------------------------

 NO OUTPUT CONTROL FOR STRESS PERIOD   46   TIME STEP   26
 
 SOLVING FOR HEAD 
                                                   Max.-Head-Change                         Max.-Flux-Residual
  Residual-Control   Outer-Iter.   Inner-Iter.     Column Row Layer    Maximum-Head-Change  Column Row Layer    Maximum-Flux-Residual          L2-NORM 
          0                 1           2             5    8     1       0.1290896201E+00       5    8    1         0.7049898104E+01      0.1222920327E+02
          0                 2           2             5    8     1      -0.6391209746E-01       5    8    1        -0.3531725716E+01      0.8032244080E+01
          0                 3           2             5    8     1       0.4352152580E-02       5    8    1         0.2472193002E+00      0.5622441419E+00
          0                 4           2             5    8     1      -0.1731763383E-03       5    8    1        -0.1011129093E-01      0.2299571335E-01
          0                 5           1             5    8     1       0.2135339264E-05       5    8    1         0.1281412226E-03      0.2915739794E-03

    ------------------------------------------------
       NWT REQUIRED            5 OUTER ITERATIONS 
       AND A TOTAL OF          9 INNER ITERATIONS.
    ------------------------------------------------

 NO OUTPUT CONTROL FOR STRESS PERIOD   46   TIME STEP   27
 
 SOLVING FOR HEAD 
                                                   Max.-Head-Change                         Max.-Flux-Residual
  Residual-Control   Outer-Iter.   Inner-Iter.     Column Row Layer    Maximum-Head-Change  Column Row Layer    Maximum-Flux-Residual          L2-NORM 
          0                 1           2             5    8     1       0.1244685366E+00       5    8    1         0.6791309028E+01      0.1193858083E+02
          0                 2           2             5    8     1      -0.1210747330E-01       5    8    1        -0.6791363934E+00      0.1193844331E+01
          0                 3           2             5    8     1       0.8244732759E-03       5    8    1         0.4753951611E-01      0.8356914844E-01
          0                 4           1             5    8     1      -0.3280656690E-04       5    8    1        -0.1944369163E-02      0.3417971454E-02

    ------------------------------------------------
       NWT REQUIRED            4 OUTER ITERATIONS 
       AND A TOTAL OF          7 INNER ITERATIONS.
    ------------------------------------------------

 NO OUTPUT CONTROL FOR STRESS PERIOD   46   TIME STEP   28
 
 SOLVING FOR HEAD 
                                                   Max.-Head-Change                         Max.-Flux-Residual
  Residual-Control   Outer-Iter.   Inner-Iter.     Column Row Layer    Maximum-Head-Change  Column Row Layer    Maximum-Flux-Residual          L2-NORM 
          0                 1           2             5    8     1       0.1186643285E+00       5    8    1         0.6467904785E+01      0.1151077603E+02
          0                 2           2             5    8     1      -0.1154288089E-01       5    8    1        -0.6467958747E+00      0.1151066171E+01
          0                 3           2             5    8     1       0.7860266398E-03       5    8    1         0.4527567982E-01      0.8057466997E-01
          0                 4           1             5    8     1      -0.3127673891E-04       5    8    1        -0.1851778109E-02      0.3295499224E-02

    ------------------------------------------------
       NWT REQUIRED            4 OUTER ITERATIONS 
       AND A TOTAL OF          7 INNER ITERATIONS.
    ------------------------------------------------

 NO OUTPUT CONTROL FOR STRESS PERIOD   46   TIME STEP   29
 
 SOLVING FOR HEAD 
                                                   Max.-Head-Change                         Max.-Flux-Residual
  Residual-Control   Outer-Iter.   Inner-Iter.     Column Row Layer    Maximum-Head-Change  Column Row Layer    Maximum-Flux-Residual          L2-NORM 
          0                 1           2             5    8     1       0.1132469975E+00       5    8    1         0.6166292876E+01      0.1111382749E+02
          0                 2           2             5    8     1      -0.1101592685E-01       5    8    1        -0.6166348968E+00      0.1111374132E+01
          0                 3           2             5    8     1       0.7501498153E-03       5    8    1         0.4316479505E-01      0.7779707411E-01
          0                 4           1             5    8     1      -0.2984916656E-04       5    8    1        -0.1765442802E-02      0.3181895492E-02

    ------------------------------------------------
       NWT REQUIRED            4 OUTER ITERATIONS 
       AND A TOTAL OF          7 INNER ITERATIONS.
    ------------------------------------------------

 NO OUTPUT CONTROL FOR STRESS PERIOD   46   TIME STEP   30



 STREAM LISTING     PERIOD     46   STEP       30

 LAYER ROW COL. STREAM  RCH.  FLOW INTO     FLOW TO   FLOW OUT OF   OVRLND.     DIRECT     STREAM       STREAM     STREAM     STREAM   STREAMBED  STREAMBED
                SEG.NO.  NO.  STRM. RCH.    AQUIFER    STRM. RCH.    RUNOFF     PRECIP       ET          HEAD       DEPTH      WIDTH   CONDCTNC.   GRADIENT

   1    1    1     1     1    9.3747E+00  1.4265E-01   9.2321E+00  0.000E+00  0.000E+00  0.000E+00  1.09393E+03  8.788E-01  8.172E+00  3.678E-02  1.293E+00
   1    2    2     1     2    9.2321E+00  2.1921E-01   9.0129E+00  0.000E+00  0.000E+00  0.000E+00  1.08893E+03  8.731E-01  8.085E+00  5.660E-02  1.291E+00
   1    3    3     1     3    9.0129E+00  1.8531E-01   8.8275E+00  0.000E+00  0.000E+00  0.000E+00  1.08329E+03  8.667E-01  7.987E+00  4.792E-02  1.289E+00
   1    3    4     1     4    8.8275E+00  1.6930E-01   8.6583E+00  0.000E+00  0.000E+00  0.000E+00  1.07827E+03  8.609E-01  7.901E+00  4.385E-02  1.287E+00
   1    4    5     2     1    6.6583E+00  2.7605E-01   6.3822E+00  0.000E+00  0.000E+00  0.000E+00  1.07247E+03  5.391E-01  1.200E+01  7.800E-02  1.180E+00
   1    5    6     2     2    6.3822E+00  2.1162E-01   6.1706E+00  0.000E+00  0.000E+00  0.000E+00  1.06704E+03  5.270E-01  1.200E+01  6.000E-02  1.176E+00
   1    6    6     2     3    6.1706E+00  2.1097E-01   5.9596E+00  0.000E+00  0.000E+00  0.000E+00  1.06231E+03  5.162E-01  1.200E+01  6.000E-02  1.172E+00
   1    7    6     2     4    5.9596E+00  2.1032E-01   5.7493E+00  0.000E+00  0.000E+00  0.000E+00  1.05758E+03  5.054E-01  1.200E+01  6.000E-02  1.168E+00
   1    8    6     2     5    5.7493E+00  2.0967E-01   5.5396E+00  0.000E+00  0.000E+00  0.000E+00  1.05285E+03  4.944E-01  1.200E+01  6.000E-02  1.165E+00
   1    3    5     3     1    2.0000E+00  2.8252E-01   1.7175E+00  0.000E+00  0.000E+00  0.000E+00  1.07555E+03  1.909E+00  9.636E+00  7.227E-02  1.955E+00
   1    3    6     3     2    1.7175E+00  2.4905E-01   1.4684E+00  0.000E+00  0.000E+00  0.000E+00  1.07264E+03  1.727E+00  8.909E+00  6.682E-02  1.864E+00
   1    3    7     3     3    1.4684E+00  1.9718E-01   1.2712E+00  0.000E+00  0.000E+00  0.000E+00  1.06987E+03  1.555E+00  8.218E+00  5.547E-02  1.777E+00
   1    4    8     3     4    1.2712E+00  2.2567E-01   1.0456E+00  0.000E+00  0.000E+00  0.000E+00  1.06682E+03  1.364E+00  7.455E+00  6.709E-02  1.682E+00
   1    5    8     3     5    1.0456E+00  1.5790E-01   8.8768E-01  0.000E+00  0.000E+00  0.000E+00  1.06362E+03  1.164E+00  6.655E+00  4.991E-02  1.582E+00
   1    6    8     3     6    8.8768E-01  5.5980E-02   8.3170E-01  0.000E+00  0.000E+00  0.000E+00  1.06158E+03  1.036E+00  6.145E+00  1.844E-02  1.518E+00
   1    5   10     4     1    1.0000E+01  9.0919E-02   9.9091E+00  0.000E+00  0.000E+00  0.000E+00  1.07836E+03  6.368E-01  1.000E+01  2.500E-02  1.212E+00
   1    5    9     4     2    9.9091E+00  1.8158E-01   9.7275E+00  0.000E+00  0.000E+00  0.000E+00  1.07154E+03  6.315E-01  1.000E+01  5.000E-02  1.211E+00
   1    6    8     4     3    9.7275E+00  1.2689E-01   9.6006E+00  0.000E+00  0.000E+00  0.000E+00  1.06381E+03  6.256E-01  1.000E+01  3.500E-02  1.209E+00
   1    6    8     5     1    1.0432E+01  2.2686E-01   1.0205E+01  0.000E+00  0.000E+00  0.000E+00  1.05868E+03  6.790E-01  1.542E+01  6.166E-02  1.226E+00
   1    7    7     5     2    1.0205E+01  2.7894E-01   9.9265E+00  0.000E+00  0.000E+00  0.000E+00  1.05417E+03  6.732E-01  1.519E+01  7.594E-02  1.224E+00
   1    8    7     5     3    9.9265E+00  1.9221E-01   9.7343E+00  0.000E+00  0.000E+00  0.000E+00  1.04992E+03  6.676E-01  1.497E+01  5.241E-02  1.223E+00
   1    8    6     5     4    9.7343E+00  1.3577E-01   9.5985E+00  0.000E+00  0.000E+00  0.000E+00  1.04691E+03  6.637E-01  1.482E+01  3.706E-02  1.221E+00
   1    9    6     6     1    1.5138E+01  2.3397E-01   1.4904E+01  0.000E+00  0.000E+00  0.000E+00  1.04363E+03  8.995E-01  1.200E+01  6.000E-02  1.300E+00
   1   10    7     6     2    1.4904E+01  2.3346E-01   1.4671E+01  0.000E+00  0.000E+00  0.000E+00  1.03907E+03  8.911E-01  1.200E+01  6.000E-02  1.297E+00
   1   11    7     6     3    1.4671E+01  2.3296E-01   1.4438E+01  0.000E+00  0.000E+00  0.000E+00  1.03452E+03  8.826E-01  1.200E+01  6.000E-02  1.294E+00
   1   12    7     6     4    1.4438E+01  2.3245E-01   1.4205E+01  0.000E+00  0.000E+00  0.000E+00  1.02997E+03  8.741E-01  1.200E+01  6.000E-02  1.291E+00
   1   13    7     6     5    1.4205E+01  1.2288E-02   1.4193E+01  0.000E+00  0.000E+00  0.000E+00  1.02678E+03  8.696E-01  1.200E+01  2.400E-02  1.707E-01
   1   14    9     7     1    1.5000E+02  1.4311E+00   1.4857E+02  0.000E+00  0.000E+00  0.000E+00  1.03987E+03  2.287E+00  5.529E+01  5.593E-01  8.529E-01
   1   13    8     7     2    1.4857E+02  2.1110E+00   1.4646E+02  0.000E+00  0.000E+00  0.000E+00  1.03478E+03  2.278E+00  5.525E+01  6.147E-01  1.145E+00
   1   13    7     7     3    1.4646E+02  1.9093E+00   1.4455E+02  0.000E+00  0.000E+00  0.000E+00  1.02969E+03  2.267E+00  5.520E+01  5.583E-01  1.140E+00
   1   13    6     8     1    1.5874E+02  1.2743E+00   1.5747E+02  0.000E+00  0.000E+00  0.000E+00  1.02475E+03  2.873E+00  4.166E+01  4.245E-01  1.001E+00
   1   13    5     8     2    1.5747E+02  5.0516E-01   1.5696E+02  0.000E+00  0.000E+00  0.000E+00  1.01849E+03  2.867E+00  4.157E+01  4.236E-01  3.975E-01
   1   13    4     8     3    1.5696E+02 -1.2800E+00   1.5824E+02  0.000E+00  0.000E+00  0.000E+00  1.01224E+03  2.870E+00  4.161E+01  4.240E+00 -1.006E-01
   1   13    3     8     4    1.5824E+02 -3.0616E+00   1.6130E+02  0.000E+00  0.000E+00  0.000E+00  1.00601E+03  2.884E+00  4.182E+01  4.262E+00 -2.395E-01
   1   13    2     8     5    1.6130E+02 -2.3961E+00   1.6370E+02  0.000E+00  0.000E+00  0.000E+00  9.99778E+02  2.903E+00  4.209E+01  4.289E+00 -1.862E-01
   1   13    1     8     6    1.6370E+02 -1.9195E+00   1.6562E+02  0.000E+00  0.000E+00  0.000E+00  9.94792E+02  2.917E+00  4.230E+01  2.586E+00 -2.474E-01
   1    8    6     9     1    3.2534E-06  0.0000E+00   3.2534E-06  0.000E+00  0.000E+00  0.000E+00  1.07875E+03  2.902E-04  4.000E+00  0.000E+00  1.000E+00
   1    8    5     9     2    3.2534E-06  0.0000E+00   3.2534E-06  0.000E+00  0.000E+00  0.000E+00  1.07825E+03  2.902E-04  4.000E+00  0.000E+00  1.000E+00





UNSATURATED ZONE PACKAGE VOLUMETRIC BUDGET FOR  TIME STEP    30 STRESS PERIOD   46
  ------------------------------------------------------------------------------



     CUMULATIVE VOLUMES      L**3       RATES FOR THIS TIME STEP      L**3/T
     ------------------                 ------------------------

           IN:                                      IN:
           ---                                      ---
        INFILTRATION = 12897921255.9794          INFILTRATION =           0.8475

          OUT:                                     OUT:
          ----                                     ----
              UZF ET =  1701706964.7773                UZF ET =          12.0675
        UZF RECHARGE = 10439810728.4880          UZF RECHARGE =       0.0000E+00

            IN - OUT =   756403562.7141              IN - OUT =         -11.2200

          STORAGE:                                 STORAGE:
          --------                                 --------
      STORAGE CHANGE =   757683288.9479        STORAGE CHANGE =         -11.2200

 PERCENT DISCREPANCY IS DIFFERENCE BETWEEN IN-OUT MINUS CHANGE IN STORAGE
 DIVIDED BY THE AVERAGE OF IN AND OUT TIMES 100

 PERCENT DISCREPANCY =          -0.00     PERCENT DISCREPANCY =           0.00






1
  VOLUMETRIC BUDGET FOR AGRICULTURAL FIELDS AT  END OF TIME STEP   30, STRESS PERIOD  46
  ------------------------------------------------------------------------------

     CUMULATIVE VOLUMES      L**3       RATES FOR THIS TIME STEP      L**3/T
     ------------------                 ------------------------

           IN:                                      IN:
           ---                                      ---
               AG WELLS  = 12229510144.0000                 AG WELLS  =           0.0000
      DIVERSION SEGMENTS =   568051008.0000        DIVERSION SEGMENTS =       3.2534E-06
           GW IRRIGATION =           0.0000             GW IRRIGATION =           0.0000
           SW IRRIGATION =           0.0000             SW IRRIGATION =           0.0000
        SYSTEM LOSSES GW =           0.0000          SYSTEM LOSSES GW =           0.0000
        SYSTEM LOSSES SW =           0.0000          SYSTEM LOSSES SW =           0.0000

                TOTAL IN = 12797560832.0000                  TOTAL IN =       3.2534E-06

          OUT:                                     OUT:
          ----                                     ----
               AG WELLS  =           0.0000                 AG WELLS  =           0.0000
      DIVERSION SEGMENTS =           0.0000        DIVERSION SEGMENTS =           0.0000
           GW IRRIGATION = 12229510144.0000             GW IRRIGATION =           0.0000
           SW IRRIGATION =   568061312.0000             SW IRRIGATION =       3.2535E-06
        SYSTEM LOSSES GW =           0.0000          SYSTEM LOSSES GW =           0.0000
        SYSTEM LOSSES SW =           0.0000          SYSTEM LOSSES SW =           0.0000

               TOTAL OUT = 12797571072.0000                 TOTAL OUT =       3.2535E-06

                IN - OUT =      -10240.0000                  IN - OUT =      -6.5029E-11

     PERCENT DISCREPANCY =          -0.00         PERCENT DISCREPANCY =          -0.00



1
  VOLUMETRIC BUDGET FOR ENTIRE MODEL AT END OF TIME STEP   30, STRESS PERIOD  46
  ------------------------------------------------------------------------------

     CUMULATIVE VOLUMES      L**3       RATES FOR THIS TIME STEP      L**3/T
     ------------------                 ------------------------

           IN:                                      IN:
           ---                                      ---
             STORAGE     = 10967891968.0000               STORAGE     =          20.5559
       CONSTANT HEAD     =           0.0000         CONSTANT HEAD     =           0.0000
     HEAD DEP BOUNDS     =    34314836.0000       HEAD DEP BOUNDS     =           0.2922
      STREAM LEAKAGE     =  1467956352.0000        STREAM LEAKAGE     =          12.4126
        UZF RECHARGE     = 10439809024.0000          UZF RECHARGE     =           0.0000
               GW ET     =           0.0000                 GW ET     =           0.0000
     SURFACE LEAKAGE     =           0.0000       SURFACE LEAKAGE     =           0.0000
           AG WELLS      =           0.0000             AG WELLS      =           0.0000

                TOTAL IN = 22909972480.0000                  TOTAL IN =          33.2607

          OUT:                                     OUT:
          ----                                     ----
             STORAGE     =  9545781248.0000               STORAGE     =          24.3172
       CONSTANT HEAD     =           0.0000         CONSTANT HEAD     =           0.0000
     HEAD DEP BOUNDS     =    34075488.0000       HEAD DEP BOUNDS     =           0.2863
      STREAM LEAKAGE     =  1100443648.0000        STREAM LEAKAGE     =           8.6572
        UZF RECHARGE     =           0.0000          UZF RECHARGE     =           0.0000
               GW ET     =           0.0000                 GW ET     =           0.0000
     SURFACE LEAKAGE     =           0.0000       SURFACE LEAKAGE     =           0.0000
           AG WELLS      = 12229510144.0000             AG WELLS      =           0.0000

               TOTAL OUT = 22909810688.0000                 TOTAL OUT =          33.2607

                IN - OUT =      161792.0000                  IN - OUT =       1.9073E-05

     PERCENT DISCREPANCY =           0.00         PERCENT DISCREPANCY =           0.00






         TIME SUMMARY AT END OF TIME STEP   30 IN STRESS PERIOD   46
                    SECONDS     MINUTES      HOURS       DAYS        YEARS
                    -----------------------------------------------------------
   TIME STEP LENGTH  87667.      1461.1      24.352      1.0147     2.77799E-03
 STRESS PERIOD TIME 2.63000E+06  43833.      730.56      30.440     8.33397E-02
         TOTAL TIME 1.18435E+08 1.97392E+06  32899.      1370.8      3.7530    
1
1
                            STRESS PERIOD NO.   47, LENGTH =   2630000.    
                            -----------------------------------------------

                              NUMBER OF TIME STEPS =    30

                               MULTIPLIER FOR DELT =     1.000

                            INITIAL TIME STEP SIZE =   87666.66    

 REUSING NON-PARAMETER GHB CELLS FROM LAST STRESS PERIOD

      2 GHB CELLS

 REUSING STREAM SEGMENT DATA FROM LAST STRESS PERIOD



            AREAL INFILTRATION RATE
 READING ON UNIT   19 WITH FORMAT: (FREE)              

            1           2           3           4           5           6           7           8           9          10
 ........................................................................................................................
   1   1.0000E-10  2.0000E-10   0.000       0.000       0.000       0.000       0.000       0.000       0.000       0.000    
   2   2.0000E-10  1.0000E-10  2.0000E-10   0.000       0.000      8.0000E-10  8.0000E-10  5.0000E-10   0.000       0.000    
   3    0.000      5.0000E-10  1.0000E-10  1.0000E-10  8.0000E-10  8.0000E-10  5.0000E-10  5.0000E-10   0.000       0.000    
   4   8.0000E-10  5.0000E-10  1.0000E-10  1.0000E-10  1.0000E-10  1.0000E-10  1.0000E-10  1.0000E-10  2.0000E-10   0.000    
   5   8.0000E-10  5.0000E-10  1.0000E-10  1.0000E-10  1.0000E-10  1.0000E-10  1.0000E-10  1.0000E-10  1.0000E-10  1.0000E-10
   6   8.0000E-10  5.0000E-10  5.0000E-10  2.0000E-10  2.0000E-10  1.0000E-10  1.0000E-10  1.0000E-10  1.0000E-10  5.0000E-10
   7   8.0000E-10  5.0000E-10  5.0000E-10  2.0000E-10  2.0000E-10  1.0000E-10  1.0000E-10  2.0000E-10  2.0000E-10   0.000    
   8    0.000      5.0000E-10  5.0000E-10  2.0000E-10  2.0000E-10  1.0000E-10  1.0000E-10  2.0000E-10  5.0000E-10   0.000    
   9    0.000      5.0000E-10  5.0000E-10  2.0000E-10  2.0000E-10  1.0000E-10  1.0000E-10  2.0000E-10  5.0000E-10   0.000    
  10    0.000      5.0000E-10  5.0000E-10  2.0000E-10  2.0000E-10  1.0000E-10  1.0000E-10  2.0000E-10  5.0000E-10  8.0000E-10
  11    0.000      1.0000E-10  1.0000E-10  1.0000E-10  1.0000E-10  1.0000E-10  1.0000E-10  2.0000E-10  5.0000E-10   0.000    
  12   1.0000E-10  1.0000E-10  1.0000E-10  1.0000E-10  1.0000E-10  1.0000E-10  1.0000E-10  1.0000E-10  2.0000E-10   0.000    
  13   1.0000E-10  1.0000E-10  2.0000E-10  2.0000E-10  2.0000E-10  2.0000E-10  2.0000E-10  1.0000E-10  1.0000E-10   0.000    
  14    0.000      2.0000E-10  5.0000E-10  5.0000E-10  5.0000E-10  5.0000E-10  5.0000E-10  2.0000E-10  1.0000E-10   0.000    
  15    0.000       0.000      8.0000E-10  8.0000E-10  8.0000E-10  8.0000E-10   0.000       0.000       0.000       0.000    

                  ET RATE =  5.000000E-09

 USING ET EXTINCTION DEPTH FROM PREVIOUS STRESS PERIOD. CURRENT PERIOD IS:      47

 USING EXTINCTION WATER CONTENT FROM PREVIOUS STRESS PERIOD. CURRENT PERIOD IS:      47

 USING AIR ENTRY PRESSURE FROM PREVIOUS STRESS PERIOD. CURRENT PERIOD IS:      47

 USING ROOT PRESSURE HEAD FROM PREVIOUS STRESS PERIOD. CURRENT PERIOD IS:      47

 USING ROOT ACTIVITY FROM PREVIOUS STRESS PERIOD. CURRENT PERIOD IS:      47

 PROCESSING AG STRESS PERIOD DATA

 READING AG STRESS PERIOD DATA

 READING IRRIGATION SEGMENT

 READING IRRIGATION WELL

 READING SUPPLEMENTAL WELL

 END PROCESSING AG STRESS PERIOD DATA OPTIONS
 
 SOLVING FOR HEAD 
                                                   Max.-Head-Change                         Max.-Flux-Residual
  Residual-Control   Outer-Iter.   Inner-Iter.     Column Row Layer    Maximum-Head-Change  Column Row Layer    Maximum-Flux-Residual          L2-NORM 
          0                 1           2             5    8     1       0.1081869506E+00       5    8    1         0.5884793869E+01      0.1074494924E+02
          0                 2           2             5    8     1      -0.1052371253E-01       5    8    1        -0.5884844154E+00      0.1074487156E+01
          0                 3           2             5    8     1       0.7166251021E-03       5    8    1         0.4119387930E-01      0.7521413520E-01
          0                 4           1             5    8     1      -0.2851518663E-04       5    8    1        -0.1684832222E-02      0.3076258461E-02

    ------------------------------------------------
       NWT REQUIRED            4 OUTER ITERATIONS 
       AND A TOTAL OF          7 INNER ITERATIONS.
    ------------------------------------------------

 NO OUTPUT CONTROL FOR STRESS PERIOD   47   TIME STEP    1
 
 SOLVING FOR HEAD 
                                                   Max.-Head-Change                         Max.-Flux-Residual
  Residual-Control   Outer-Iter.   Inner-Iter.     Column Row Layer    Maximum-Head-Change  Column Row Layer    Maximum-Flux-Residual          L2-NORM 
          0                 1           2             5    8     1       0.1034567214E+00       5    8    1         0.5621850293E+01      0.1040160917E+02
          0                 2           2             4    7     1      -0.1868140009E+01       5    8    1        -0.1005621898E+03      0.2459125851E+03
          0                 3           2             4    7     1       0.1271940891E+00       5    8    1         0.7037101811E+01      0.1721083080E+02
          0                 4           2             4    7     1      -0.5061264793E-02       5    8    1        -0.2876970767E+00      0.7039812297E+00
          0                 5           1             4    7     1       0.6240743609E-04       4    8    1         0.3638124931E-02      0.8968001234E-02

    ------------------------------------------------
       NWT REQUIRED            5 OUTER ITERATIONS 
       AND A TOTAL OF          9 INNER ITERATIONS.
    ------------------------------------------------

 NO OUTPUT CONTROL FOR STRESS PERIOD   47   TIME STEP    2
 
 SOLVING FOR HEAD 
                                                   Max.-Head-Change                         Max.-Flux-Residual
  Residual-Control   Outer-Iter.   Inner-Iter.     Column Row Layer    Maximum-Head-Change  Column Row Layer    Maximum-Flux-Residual          L2-NORM 
          0                 1           2             5    8     1       0.1524692636E+00       5    8    1         0.8322897687E+01      0.1581410322E+02
          0                 2           2             5    8     1      -0.1483109758E-01       5    8    1        -0.8322895297E+00      0.1581372667E+01
          0                 3           2             5    8     1       0.1009942803E-02       5    8    1         0.5826029448E-01      0.1106964280E+00
          0                 4           1             5    8     1      -0.4018656901E-04       5    8    1        -0.2382849354E-02      0.4527484191E-02

    ------------------------------------------------
       NWT REQUIRED            4 OUTER ITERATIONS 
       AND A TOTAL OF          7 INNER ITERATIONS.
    ------------------------------------------------

 NO OUTPUT CONTROL FOR STRESS PERIOD   47   TIME STEP    3
 
 SOLVING FOR HEAD 
                                                   Max.-Head-Change                         Max.-Flux-Residual
  Residual-Control   Outer-Iter.   Inner-Iter.     Column Row Layer    Maximum-Head-Change  Column Row Layer    Maximum-Flux-Residual          L2-NORM 
          0                 1           2             5    8     1       0.1452869483E+00       5    8    1         0.7922898571E+01      0.1522103142E+02
          0                 2           2             5    8     1      -0.1413246183E-01       5    8    1        -0.7922901414E+00      0.1522070412E+01
          0                 3           2             5    8     1       0.9623682231E-03       5    8    1         0.5546033114E-01      0.1065452315E+00
          0                 4           1             5    8     1      -0.3829353210E-04       5    8    1        -0.2268330707E-02      0.4357698725E-02

    ------------------------------------------------
       NWT REQUIRED            4 OUTER ITERATIONS 
       AND A TOTAL OF          7 INNER ITERATIONS.
    ------------------------------------------------

 NO OUTPUT CONTROL FOR STRESS PERIOD   47   TIME STEP    4
 
 SOLVING FOR HEAD 
                                                   Max.-Head-Change                         Max.-Flux-Residual
  Residual-Control   Outer-Iter.   Inner-Iter.     Column Row Layer    Maximum-Head-Change  Column Row Layer    Maximum-Flux-Residual          L2-NORM 
          0                 1           2             5    8     1       0.1385804361E+00       5    8    1         0.7549681795E+01      0.1466881032E+02
          0                 2           2             5    8     1      -0.1347255253E-01       5    8    1        -0.7543772267E+00      0.1466751181E+01
          0                 3           2             5    8     1       0.9174302807E-03       5    8    1         0.5280638770E-01      0.1026728499E+00
          0                 4           1             5    8     1      -0.3650541211E-04       5    8    1        -0.2159784444E-02      0.4199317739E-02

    ------------------------------------------------
       NWT REQUIRED            4 OUTER ITERATIONS 
       AND A TOTAL OF          7 INNER ITERATIONS.
    ------------------------------------------------

 NO OUTPUT CONTROL FOR STRESS PERIOD   47   TIME STEP    5
 
 SOLVING FOR HEAD 
                                                   Max.-Head-Change                         Max.-Flux-Residual
  Residual-Control   Outer-Iter.   Inner-Iter.     Column Row Layer    Maximum-Head-Change  Column Row Layer    Maximum-Flux-Residual          L2-NORM 
          0                 1           2             5    8     1       0.1433413600E+00       5    8    1         0.7808023038E+01      0.1447200267E+02
          0                 2           2             5    8     1       0.6330368361E-01       5    8    1         0.3501063677E+01      0.3707033986E+01
          0                 3           2             5    8     1       0.2795618083E-01       5    8    1         0.1541075439E+01      0.1543483185E+01
          0                 4           2             5    8     1       0.1234603779E-01       5    8    1         0.6808782239E+00      0.6808868202E+00
          0                 5           1             5    8     1       0.5452270012E-02       5    8    1         0.3006837802E+00      0.3006850963E+00
          0                 6           1             5    8     1       0.2407837263E-02       5    8    1         0.1327882885E+00      0.1327888117E+00
          0                 7           1             5    8     1       0.1063351666E-02       5    8    1         0.5864215852E-01      0.5864238970E-01
          0                 8           1             5    8     1       0.4695985039E-03       5    8    1         0.2589761416E-01      0.2589771630E-01
          0                 9           1             5    8     1       0.2073845962E-03       5    8    1         0.1143693345E-01      0.1143697853E-01
          0                10           1             5    8     1       0.9158540873E-04       5    8    1         0.5050791076E-02      0.5050810984E-02

    ------------------------------------------------
       NWT REQUIRED           10 OUTER ITERATIONS 
       AND A TOTAL OF         14 INNER ITERATIONS.
    ------------------------------------------------

 NO OUTPUT CONTROL FOR STRESS PERIOD   47   TIME STEP    6
 
 SOLVING FOR HEAD 
                                                   Max.-Head-Change                         Max.-Flux-Residual
  Residual-Control   Outer-Iter.   Inner-Iter.     Column Row Layer    Maximum-Head-Change  Column Row Layer    Maximum-Flux-Residual          L2-NORM 
          0                 1           2             5    8     1       0.4730196523E+00       5    8    1         0.2598172417E+02      0.2857229876E+02
          0                 2           2             5    8     1       0.2020728726E+00       5    8    1         0.1115617575E+02      0.1121930259E+02
          0                 3           2             5    8     1       0.8632380263E-01       5    8    1         0.4760361611E+01      0.4761151948E+01
          0                 4           2             5    8     1       0.3687693718E-01       5    8    1         0.2033915929E+01      0.2033923732E+01
          0                 5           2             5    8     1       0.1575358752E-01       5    8    1         0.8688723549E+00      0.8688761438E+00
          0                 6           2             5    8     1       0.6729832694E-02       5    8    1         0.3711776129E+00      0.3711791760E+00
          0                 7           1             5    8     1       0.2874942330E-02       5    8    1         0.1585649234E+00      0.1585655913E+00
          0                 8           1             5    8     1       0.1228157425E-02       5    8    1         0.6773797242E-01      0.6773825764E-01
          0                 9           1             5    8     1       0.5246612042E-03       5    8    1         0.2893724582E-01      0.2893736760E-01
          0                10           1             5    8     1       0.2241320024E-03       5    8    1         0.1236181254E-01      0.1236186454E-01
          0                11           1             5    8     1       0.9574779798E-04       5    8    1         0.5280889723E-02      0.5280911926E-02

    ------------------------------------------------
       NWT REQUIRED           11 OUTER ITERATIONS 
       AND A TOTAL OF         17 INNER ITERATIONS.
    ------------------------------------------------

 NO OUTPUT CONTROL FOR STRESS PERIOD   47   TIME STEP    7
 
 SOLVING FOR HEAD 
                                                   Max.-Head-Change                         Max.-Flux-Residual
  Residual-Control   Outer-Iter.   Inner-Iter.     Column Row Layer    Maximum-Head-Change  Column Row Layer    Maximum-Flux-Residual          L2-NORM 
          0                 1           2             5    8     1       0.3618582813E+00       5    8    1         0.1981553794E+02      0.2315752937E+02
          0                 2           2             5    8     1       0.1545704893E+00       5    8    1         0.8540636673E+01      0.8624278941E+01
          0                 3           2             5    8     1       0.6602496686E-01       5    8    1         0.3640835527E+01      0.3641880641E+01
          0                 4           2             5    8     1       0.2820273926E-01       5    8    1         0.1555641221E+01      0.1555646515E+01
          0                 5           2             5    8     1       0.1204688174E-01       5    8    1         0.6644836903E+00      0.6644866993E+00
          0                 6           1             5    8     1       0.5145861979E-02       5    8    1         0.2838371972E+00      0.2838383927E+00
          0                 7           1             5    8     1       0.2198070791E-02       5    8    1         0.1212420139E+00      0.1212425270E+00
          0                 8           1             5    8     1       0.9389127581E-03       5    8    1         0.5178891918E-01      0.5178913815E-01
          0                 9           1             5    8     1       0.4010595070E-03       5    8    1         0.2212180146E-01      0.2212189496E-01
          0                10           1             5    8     1       0.1713138185E-03       5    8    1         0.9449397162E-02      0.9449437079E-02
          0                11           1             5    8     1       0.7317723157E-04       5    8    1         0.4036339645E-02      0.4036356688E-02

    ------------------------------------------------
       NWT REQUIRED           11 OUTER ITERATIONS 
       AND A TOTAL OF         16 INNER ITERATIONS.
    ------------------------------------------------

 NO OUTPUT CONTROL FOR STRESS PERIOD   47   TIME STEP    8
 
 SOLVING FOR HEAD 
                                                   Max.-Head-Change                         Max.-Flux-Residual
  Residual-Control   Outer-Iter.   Inner-Iter.     Column Row Layer    Maximum-Head-Change  Column Row Layer    Maximum-Flux-Residual          L2-NORM 
          0                 1           2             5    8     1       0.3114946985E+00       5    8    1         0.1701314381E+02      0.2084985832E+02
          0                 2           2             5    8     1       0.1287208919E+00       5    8    1         0.7084873929E+01      0.7339999428E+01
          0                 3           2             5    8     1       0.5319266322E-01       5    8    1         0.2922491952E+01      0.3019800017E+01
          0                 4           2             5    8     1       0.2199486180E-01       5    8    1         0.1208074654E+01      0.1258658284E+01
          0                 5           2             5    8     1       0.9100589393E-02       5    8    1         0.4995854618E+00      0.5256961147E+00
          0                 6           2             5    8     1       0.3767988875E-02       5    8    1         0.2067349352E+00      0.2200260518E+00
          0                 7           2             5    8     1       0.1561186814E-02       5    8    1         0.8560743291E-01      0.9229162430E-01
          0                 8           2             5    8     1       0.6473198139E-03       5    8    1         0.3547453108E-01      0.3880044807E-01
          0                 9           2             5    8     1       0.2686058251E-03       5    8    1         0.1471103372E-01      0.1635034171E-01
          0                10           1             5    8     1       0.1115470934E-03       5    8    1         0.6105269259E-02      0.6906418981E-02
          0                11           1             5    8     1       0.4636189858E-04       5    8    1         0.2535802313E-02      0.2924325653E-02

    ------------------------------------------------
       NWT REQUIRED           11 OUTER ITERATIONS 
       AND A TOTAL OF         20 INNER ITERATIONS.
    ------------------------------------------------

 NO OUTPUT CONTROL FOR STRESS PERIOD   47   TIME STEP    9
 
 SOLVING FOR HEAD 
                                                   Max.-Head-Change                         Max.-Flux-Residual
  Residual-Control   Outer-Iter.   Inner-Iter.     Column Row Layer    Maximum-Head-Change  Column Row Layer    Maximum-Flux-Residual          L2-NORM 
          0                 1           2             4    8     1       0.4151086312E+00       4    8    1         0.2229473214E+02      0.3017079020E+02
          0                 2           2             4    8     1       0.1829476474E+00       4    8    1         0.9841191529E+01      0.1275420307E+02
          0                 3           2             4    8     1       0.8061352880E-01       4    8    1         0.4335716806E+01      0.5569864313E+01
          0                 4           2             4    8     1       0.3551512480E-01       4    8    1         0.1910484284E+01      0.2439665658E+01
          0                 5           2             4    8     1       0.1564398125E-01       4    8    1         0.8416592635E+00      0.1068680086E+01
          0                 6           2             4    8     1       0.6889917707E-02       4    8    1         0.3707300663E+00      0.4681771526E+00
          0                 7           2             4    8     1       0.3034013827E-02       4    8    1         0.1632723613E+00      0.2051220130E+00
          0                 8           2             4    8     1       0.1335861817E-02       4    8    1         0.7189601644E-01      0.8987762339E-01
          0                 9           2             4    8     1       0.5880975919E-03       4    8    1         0.3165468878E-01      0.3938454544E-01
          0                10           2             4    8     1       0.2588715525E-03       4    8    1         0.1393528132E-01      0.1725968750E-01
                                                   Max.-Head-Change                         Max.-Flux-Residual
  Residual-Control   Outer-Iter.   Inner-Iter.     Column Row Layer    Maximum-Head-Change  Column Row Layer    Maximum-Flux-Residual          L2-NORM 
          0                11           2             4    8     1       0.1139381788E-03       4    8    1         0.6133961700E-02      0.7564338028E-02
          0                12           1             4    8     1       0.5014261425E-04       4    8    1         0.2699708822E-02      0.3315416894E-02

    ------------------------------------------------
       NWT REQUIRED           12 OUTER ITERATIONS 
       AND A TOTAL OF         23 INNER ITERATIONS.
    ------------------------------------------------

 NO OUTPUT CONTROL FOR STRESS PERIOD   47   TIME STEP   10
 
 SOLVING FOR HEAD 
                                                   Max.-Head-Change                         Max.-Flux-Residual
  Residual-Control   Outer-Iter.   Inner-Iter.     Column Row Layer    Maximum-Head-Change  Column Row Layer    Maximum-Flux-Residual          L2-NORM 
          0                 1           2             5    7     1       0.3860572026E+00       5    7    1         0.2074126206E+02      0.3731852660E+02
          0                 2           2             5    7     1       0.1638488593E+00       5    7    1         0.8815194792E+01      0.1615507411E+02
          0                 3           2             5    8     1       0.7052826737E-01       5    8    1         0.3782798495E+01      0.7109356681E+01
          0                 4           2             5    8     1       0.3327940525E-01       5    8    1         0.1789873632E+01      0.3145945942E+01
          0                 5           2             5    8     1       0.1565776451E-01       5    8    1         0.8440758417E+00      0.1397459343E+01
          0                 6           2             5    8     1       0.7348483982E-02       5    8    1         0.3969378001E+00      0.6230583673E+00
          0                 7           2             5    8     1       0.3441302741E-02       5    8    1         0.1862107377E+00      0.2787498048E+00
          0                 8           2             5    8     1       0.1608517083E-02       5    8    1         0.8717026494E-01      0.1251084239E+00
          0                 9           2             5    8     1       0.7505994981E-03       5    8    1         0.4073145374E-01      0.5631568259E-01
          0                10           2             5    8     1       0.3497500329E-03       5    8    1         0.1900152796E-01      0.2541714791E-01
                                                   Max.-Head-Change                         Max.-Flux-Residual
  Residual-Control   Outer-Iter.   Inner-Iter.     Column Row Layer    Maximum-Head-Change  Column Row Layer    Maximum-Flux-Residual          L2-NORM 
          0                11           1             5    8     1       0.1627604554E-03       5    8    1         0.8851743490E-02      0.1149912680E-01
          0                12           1             5    8     1       0.7565647729E-04       5    8    1         0.4118352152E-02      0.5213554575E-02

    ------------------------------------------------
       NWT REQUIRED           12 OUTER ITERATIONS 
       AND A TOTAL OF         22 INNER ITERATIONS.
    ------------------------------------------------

 NO OUTPUT CONTROL FOR STRESS PERIOD   47   TIME STEP   11
 
 SOLVING FOR HEAD 
                                                   Max.-Head-Change                         Max.-Flux-Residual
  Residual-Control   Outer-Iter.   Inner-Iter.     Column Row Layer    Maximum-Head-Change  Column Row Layer    Maximum-Flux-Residual          L2-NORM 
          0                 1           2             5    8     1       0.3388640103E+00       5    8    1         0.1816628564E+02      0.3729213557E+02
          0                 2           2             5    8     1       0.1486335509E+00       5    8    1         0.7986275912E+01      0.1598372817E+02
          0                 3           2             5    8     1       0.6517138021E-01       5    8    1         0.3501179952E+01      0.6904894451E+01
          0                 4           2             5    8     1       0.2856608964E-01       5    8    1         0.1535222472E+01      0.2987485383E+01
          0                 5           2             5    8     1       0.1251880325E-01       5    8    1         0.6728658602E+00      0.1295912829E+01
          0                 6           2             5    8     1       0.5492351356E-02       5    8    1         0.2948698907E+00      0.5746984524E+00
          0                 7           2             4    8     1       0.2580815747E-02       4    8    1         0.1369314761E+00      0.2560024600E+00
          0                 8           2             4    8     1       0.1234964802E-02       4    8    1         0.6564529130E-01      0.1145537846E+00
          0                 9           2             4    8     1       0.5897648620E-03       4    8    1         0.3140028237E-01      0.5149019597E-01
          0                10           2             4    8     1       0.2811464621E-03       4    8    1         0.1499029607E-01      0.2324592511E-01
                                                   Max.-Head-Change                         Max.-Flux-Residual
  Residual-Control   Outer-Iter.   Inner-Iter.     Column Row Layer    Maximum-Head-Change  Column Row Layer    Maximum-Flux-Residual          L2-NORM 
          0                11           2             4    8     1       0.1338147035E-03       4    8    1         0.7143866799E-02      0.1053912375E-01
          0                12           1             4    8     1       0.6360169976E-04       4    8    1         0.3399293511E-02      0.4797342990E-02

    ------------------------------------------------
       NWT REQUIRED           12 OUTER ITERATIONS 
       AND A TOTAL OF         23 INNER ITERATIONS.
    ------------------------------------------------

 NO OUTPUT CONTROL FOR STRESS PERIOD   47   TIME STEP   12
 
 SOLVING FOR HEAD 
                                                   Max.-Head-Change                         Max.-Flux-Residual
  Residual-Control   Outer-Iter.   Inner-Iter.     Column Row Layer    Maximum-Head-Change  Column Row Layer    Maximum-Flux-Residual          L2-NORM 
          0                 1           2             4    8     1       0.4913544167E+00       4    8    1         0.2622926166E+02      0.4708832149E+02
          0                 2           2             4    8     1       0.2171576695E+00       5    7    1         0.1162563670E+02      0.2149917493E+02
          0                 3           2             5    7     1       0.9837033310E-01       5    7    1         0.5266599740E+01      0.9720772315E+01
          0                 4           2             5    7     1       0.4336751407E-01       5    7    1         0.2319079472E+01      0.4364291884E+01
          0                 5           2             5    7     1       0.1914669242E-01       5    7    1         0.1022668200E+01      0.1962101790E+01
          0                 6           2             5    7     1       0.8465265306E-02       5    7    1         0.4516274792E+00      0.8833007264E+00
          0                 7           2             5    6     1       0.3842030527E-02       5    6    1         0.2075610679E+00      0.3981611933E+00
          0                 8           2             5    6     1       0.1800256867E-02       5    6    1         0.9735426485E-01      0.1797033847E+00
          0                 9           2             5    6     1       0.8425998304E-03       5    6    1         0.4560745213E-01      0.8120522703E-01
          0                10           2             5    6     1       0.3939731892E-03       5    6    1         0.2134217088E-01      0.3673881599E-01
                                                   Max.-Head-Change                         Max.-Flux-Residual
  Residual-Control   Outer-Iter.   Inner-Iter.     Column Row Layer    Maximum-Head-Change  Column Row Layer    Maximum-Flux-Residual          L2-NORM 
          0                11           2             5    6     1       0.1840391555E-03       5    6    1         0.9977172392E-02      0.1664034895E-01
          0                12           1             5    6     1       0.8589883991E-04       5    6    1         0.4659951809E-02      0.7545327259E-02

    ------------------------------------------------
       NWT REQUIRED           12 OUTER ITERATIONS 
       AND A TOTAL OF         23 INNER ITERATIONS.
    ------------------------------------------------

 NO OUTPUT CONTROL FOR STRESS PERIOD   47   TIME STEP   13
 
 SOLVING FOR HEAD 
                                                   Max.-Head-Change                         Max.-Flux-Residual
  Residual-Control   Outer-Iter.   Inner-Iter.     Column Row Layer    Maximum-Head-Change  Column Row Layer    Maximum-Flux-Residual          L2-NORM 
          0                 1           2             4    7     1       0.5185843310E+00       4    7    1         0.2745144032E+02      0.4830355862E+02
          0                 2           2             4    7     1       0.2317834054E+00       4    7    1         0.1225655451E+02      0.2183491257E+02
          0                 3           2             4    7     1       0.1037218208E+00       4    7    1         0.5479506546E+01      0.9908295778E+01
          0                 4           2             4    7     1       0.4647007142E-01       4    7    1         0.2452597299E+01      0.4506031228E+01
          0                 5           2             4    7     1       0.2084408515E-01       4    7    1         0.1099067693E+01      0.2053018484E+01
          0                 6           2             4    6     1       0.9501366479E-02       4    6    1         0.5055367831E+00      0.9370720280E+00
          0                 7           2             4    6     1       0.4532550485E-02       4    6    1         0.2415302121E+00      0.4284503644E+00
          0                 8           2             4    6     1       0.2158595981E-02       4    6    1         0.1151832670E+00      0.1962197436E+00
          0                 9           2             4    6     1       0.1026478745E-02       4    6    1         0.5483962665E-01      0.9000475040E-01
          0                10           2             4    6     1       0.4874675601E-03       4    6    1         0.2607128543E-01      0.4134605630E-01
                                                   Max.-Head-Change                         Max.-Flux-Residual
  Residual-Control   Outer-Iter.   Inner-Iter.     Column Row Layer    Maximum-Head-Change  Column Row Layer    Maximum-Flux-Residual          L2-NORM 
          0                11           2             4    6     1       0.2312156235E-03       4    6    1         0.1237823797E-01      0.1902013979E-01
          0                12           1             4    6     1       0.1095508661E-03       4    6    1         0.5870035712E-02      0.8761313520E-02
          0                13           1             4    6     1       0.5185440299E-04       4    6    1         0.2780723494E-02      0.4040785369E-02

    ------------------------------------------------
       NWT REQUIRED           13 OUTER ITERATIONS 
       AND A TOTAL OF         24 INNER ITERATIONS.
    ------------------------------------------------

 NO OUTPUT CONTROL FOR STRESS PERIOD   47   TIME STEP   14
 
 SOLVING FOR HEAD 
                                                   Max.-Head-Change                         Max.-Flux-Residual
  Residual-Control   Outer-Iter.   Inner-Iter.     Column Row Layer    Maximum-Head-Change  Column Row Layer    Maximum-Flux-Residual          L2-NORM 
          0                 1           2             4    6     1       0.4587147578E+00       4    6    1         0.2447853942E+02      0.4453741464E+02
          0                 2           2             4    6     1       0.2029071354E+00       4    6    1         0.1082207578E+02      0.1983944871E+02
          0                 3           2             4    6     1       0.8979486163E-01       4    6    1         0.4787633788E+01      0.8862138407E+01
          0                 4           2             4    6     1       0.3975551735E-01       4    6    1         0.2118899687E+01      0.3961017877E+01
          0                 5           2             4    6     1       0.1760870810E-01       4    6    1         0.9381938557E+00      0.1770594328E+01
          0                 6           2             4    6     1       0.7802512294E-02       4    6    1         0.4155817793E+00      0.7915613157E+00
          0                 7           2             4    6     1       0.3458687300E-02       4    6    1         0.1841602653E+00      0.3539127827E+00
          0                 8           2             4    6     1       0.1533738215E-02       4    6    1         0.8164015999E-01      0.1582329340E+00
          0                 9           2             4    6     1       0.6803740601E-03       4    6    1         0.3620542044E-01      0.7075360332E-01
          0                10           2             4    6     1       0.3019218361E-03       4    6    1         0.1606196578E-01      0.3163987816E-01
                                                   Max.-Head-Change                         Max.-Flux-Residual
  Residual-Control   Outer-Iter.   Inner-Iter.     Column Row Layer    Maximum-Head-Change  Column Row Layer    Maximum-Flux-Residual          L2-NORM 
          0                11           2             4    7     1       0.1340293650E-03       4    6    1         0.7128085520E-02      0.1414989677E-01
          0                12           1             4    7     1       0.6041127366E-04       4    7    1         0.3173508883E-02      0.6328503877E-02

    ------------------------------------------------
       NWT REQUIRED           12 OUTER ITERATIONS 
       AND A TOTAL OF         23 INNER ITERATIONS.
    ------------------------------------------------

 NO OUTPUT CONTROL FOR STRESS PERIOD   47   TIME STEP   15
 
 SOLVING FOR HEAD 
                                                   Max.-Head-Change                         Max.-Flux-Residual
  Residual-Control   Outer-Iter.   Inner-Iter.     Column Row Layer    Maximum-Head-Change  Column Row Layer    Maximum-Flux-Residual          L2-NORM 
          0                 1           2             4    7     1       0.3696933749E+00       4    7    1         0.1938198932E+02      0.4091420672E+02
          0                 2           2             4    7     1       0.1669274662E+00       4    7    1         0.8756543084E+01      0.1807582439E+02
          0                 3           2             4    7     1       0.7533066291E-01       4    7    1         0.3953366339E+01      0.8029336350E+01
          0                 4           2             4    7     1       0.3397669726E-01       4    7    1         0.1783899395E+01      0.3572361463E+01
          0                 5           2             4    7     1       0.1531663836E-01       4    7    1         0.8045211324E+00      0.1590390291E+01
          0                 6           2             4    7     1       0.6901236748E-02       4    7    1         0.3626428383E+00      0.7084001251E+00
          0                 7           2             4    7     1       0.3107994682E-02       4    7    1         0.1633816182E+00      0.3156659279E+00
          0                 8           2             4    7     1       0.1399047433E-02       4    7    1         0.7357303987E-01      0.1407062164E+00
          0                 9           2             4    7     1       0.6294953055E-03       4    7    1         0.3311575247E-01      0.6273446031E-01
          0                10           2             4    7     1       0.2831192898E-03       4    7    1         0.1489910096E-01      0.2797589873E-01
                                                   Max.-Head-Change                         Max.-Flux-Residual
  Residual-Control   Outer-Iter.   Inner-Iter.     Column Row Layer    Maximum-Head-Change  Column Row Layer    Maximum-Flux-Residual          L2-NORM 
          0                11           2             4    7     1       0.1272835362E-03       4    7    1         0.6700450888E-02      0.1247756313E-01
          0                12           1             4    7     1       0.5720177635E-04       4    7    1         0.3012141716E-02      0.5565832478E-02

    ------------------------------------------------
       NWT REQUIRED           12 OUTER ITERATIONS 
       AND A TOTAL OF         23 INNER ITERATIONS.
    ------------------------------------------------

 NO OUTPUT CONTROL FOR STRESS PERIOD   47   TIME STEP   16
 
 SOLVING FOR HEAD 
                                                   Max.-Head-Change                         Max.-Flux-Residual
  Residual-Control   Outer-Iter.   Inner-Iter.     Column Row Layer    Maximum-Head-Change  Column Row Layer    Maximum-Flux-Residual          L2-NORM 
          0                 1           2             4    7     1       0.3624638411E+00       4    7    1         0.1901701832E+02      0.3834824186E+02
          0                 2           2             4    7     1       0.1634892684E+00       4    7    1         0.8583889228E+01      0.1696093436E+02
          0                 3           2             4    7     1       0.7369563917E-01       4    7    1         0.3871166874E+01      0.7556406365E+01
          0                 4           2             4    7     1       0.3320020536E-01       4    7    1         0.1744819481E+01      0.3370203591E+01
          0                 5           2             4    7     1       0.1494869540E-01       4    7    1         0.7859659388E+00      0.1503193732E+01
          0                 6           2             4    7     1       0.6727366663E-02       4    7    1         0.3538541246E+00      0.6705207965E+00
          0                 7           2             4    7     1       0.3026082231E-02       4    7    1         0.1592305989E+00      0.2991162869E+00
          0                 8           2             4    7     1       0.1360578534E-02       4    7    1         0.7161849545E-01      0.1334429495E+00
          0                 9           2             4    7     1       0.6114855677E-03       4    7    1         0.3219833967E-01      0.5953547956E-01
          0                10           2             4    7     1       0.2747135286E-03       4    7    1         0.1446983834E-01      0.2656306223E-01
                                                   Max.-Head-Change                         Max.-Flux-Residual
  Residual-Control   Outer-Iter.   Inner-Iter.     Column Row Layer    Maximum-Head-Change  Column Row Layer    Maximum-Flux-Residual          L2-NORM 
          0                11           1             4    7     1       0.1233717775E-03       4    7    1         0.6500206787E-02      0.1185223281E-01
          0                12           1             4    7     1       0.5538644138E-04       4    7    1         0.2919002824E-02      0.5288590278E-02

    ------------------------------------------------
       NWT REQUIRED           12 OUTER ITERATIONS 
       AND A TOTAL OF         22 INNER ITERATIONS.
    ------------------------------------------------

 NO OUTPUT CONTROL FOR STRESS PERIOD   47   TIME STEP   17
 
 SOLVING FOR HEAD 
                                                   Max.-Head-Change                         Max.-Flux-Residual
  Residual-Control   Outer-Iter.   Inner-Iter.     Column Row Layer    Maximum-Head-Change  Column Row Layer    Maximum-Flux-Residual          L2-NORM 
          0                 1           2             4    7     1       0.3543828479E+00       4    7    1         0.1862835666E+02      0.3644790321E+02
          0                 2           2             4    7     1       0.1591142747E+00       4    7    1         0.8380156229E+01      0.1588102874E+02
          0                 3           2             4    7     1       0.7140859178E-01       4    7    1         0.3764955874E+01      0.6982642117E+01
          0                 4           2             4    7     1       0.3198043752E-01       4    7    1         0.1689274606E+01      0.3038668219E+01
          0                 5           2             4    7     1       0.1429408940E-01       4    7    1         0.7562329215E+00      0.1325530579E+01
          0                 6           2             4    7     1       0.6378170550E-02       4    7    1         0.3378901586E+00      0.5795861645E+00
          0                 7           2             4    7     1       0.2841913583E-02       4    7    1         0.1507250661E+00      0.2539131884E+00
          0                 8           2             4    7     1       0.1264708654E-02       4    7    1         0.6714122612E-01      0.1114133274E+00
          0                 9           2             4    7     1       0.5622257738E-03       4    7    1         0.2987264474E-01      0.4894896438E-01
          0                10           2             4    7     1       0.2497099704E-03       4    7    1         0.1327737053E-01      0.2152777218E-01
                                                   Max.-Head-Change                         Max.-Flux-Residual
  Residual-Control   Outer-Iter.   Inner-Iter.     Column Row Layer    Maximum-Head-Change  Column Row Layer    Maximum-Flux-Residual          L2-NORM 
          0                11           1             4    7     1       0.1108206195E-03       4    7    1         0.5896125338E-02      0.9475859609E-02
          0                12           1             4    7     1       0.4914864833E-04       4    7    1         0.2616318383E-02      0.4173816239E-02

    ------------------------------------------------
       NWT REQUIRED           12 OUTER ITERATIONS 
       AND A TOTAL OF         22 INNER ITERATIONS.
    ------------------------------------------------

 NO OUTPUT CONTROL FOR STRESS PERIOD   47   TIME STEP   18
 
 SOLVING FOR HEAD 
                                                   Max.-Head-Change                         Max.-Flux-Residual
  Residual-Control   Outer-Iter.   Inner-Iter.     Column Row Layer    Maximum-Head-Change  Column Row Layer    Maximum-Flux-Residual          L2-NORM 
          0                 1           2             4    7     1       0.3418214436E+00       4    7    1         0.1813893289E+02      0.3083803262E+02
          0                 2           2             4    7     1       0.1463285951E+00       4    7    1         0.7767261498E+01      0.1291989402E+02
          0                 3           2             4    6     1       0.6234109173E-01       4    6    1         0.3326769797E+01      0.5422628188E+01
          0                 4           2             4    6     1       0.2751097493E-01       4    6    1         0.1470717979E+01      0.2287765324E+01
          0                 5           2             4    6     1       0.1211755466E-01       4    6    1         0.6487686353E+00      0.9678234955E+00
          0                 6           2             4    6     1       0.5328473002E-02       4    6    1         0.2856611531E+00      0.4104861421E+00
          0                 7           2             4    6     1       0.2339674720E-02       4    6    1         0.1255766396E+00      0.1745086706E+00
          0                 8           2             4    6     1       0.1025998750E-02       4    6    1         0.5512476204E-01      0.7434620024E-01
          0                 9           2             4    6     1       0.4494074137E-03       4    6    1         0.2416775713E-01      0.3173473596E-01
          0                10           2             4    6     1       0.1966484501E-03       4    6    1         0.1058374462E-01      0.1356943228E-01
          0                11           1             4    6     1       0.8596972288E-04       4    6    1         0.4630299490E-02      0.5811137323E-02

    ------------------------------------------------
       NWT REQUIRED           11 OUTER ITERATIONS 
       AND A TOTAL OF         21 INNER ITERATIONS.
    ------------------------------------------------

 NO OUTPUT CONTROL FOR STRESS PERIOD   47   TIME STEP   19
 
 SOLVING FOR HEAD 
                                                   Max.-Head-Change                         Max.-Flux-Residual
  Residual-Control   Outer-Iter.   Inner-Iter.     Column Row Layer    Maximum-Head-Change  Column Row Layer    Maximum-Flux-Residual          L2-NORM 
          0                 1           2             4    6     1       0.3005608452E+00       4    6    1         0.1609988224E+02      0.2515311400E+02
          0                 2           2             4    6     1       0.1317513010E+00       4    6    1         0.7084735065E+01      0.1028933676E+02
          0                 3           2             4    6     1       0.5769708864E-01       4    6    1         0.3102985677E+01      0.4354531604E+01
          0                 4           2             4    6     1       0.2524450402E-01       4    6    1         0.1358743341E+01      0.1852973603E+01
          0                 5           2             4    6     1       0.1103652812E-01       4    6    1         0.5944000716E+00      0.7898154220E+00
          0                 6           2             4    6     1       0.4821500231E-02       4    6    1         0.2598256739E+00      0.3372105884E+00
          0                 7           2             4    6     1       0.2104961023E-02       4    6    1         0.1134943644E+00      0.1441897131E+00
          0                 8           2             4    6     1       0.9184240094E-03       4    6    1         0.4954315065E-01      0.6174064530E-01
          0                 9           2             4    6     1       0.4004998002E-03       4    6    1         0.2161397944E-01      0.2647030746E-01
          0                10           2             4    6     1       0.1745587558E-03       4    6    1         0.9424315661E-02      0.1136179814E-01
          0                11           1             4    6     1       0.7604658924E-04       4    6    1         0.4107228483E-02      0.4881882990E-02

    ------------------------------------------------
       NWT REQUIRED           11 OUTER ITERATIONS 
       AND A TOTAL OF         21 INNER ITERATIONS.
    ------------------------------------------------

 NO OUTPUT CONTROL FOR STRESS PERIOD   47   TIME STEP   20
 
 SOLVING FOR HEAD 
                                                   Max.-Head-Change                         Max.-Flux-Residual
  Residual-Control   Outer-Iter.   Inner-Iter.     Column Row Layer    Maximum-Head-Change  Column Row Layer    Maximum-Flux-Residual          L2-NORM 
          0                 1           2             4    7     1       0.2039690242E+00       4    7    1         0.1075435385E+02      0.2100259833E+02
          0                 2           2             4    7     1       0.8353372991E-01       4    7    1         0.4409166058E+01      0.8095969523E+01
          0                 3           2             4    7     1       0.3420635467E-01       4    7    1         0.1805291780E+01      0.3286977174E+01
          0                 4           2             4    7     1       0.1400558759E-01       4    7    1         0.7392610186E+00      0.1342475872E+01
          0                 5           2             4    7     1       0.5733866085E-02       4    7    1         0.3026785283E+00      0.5482391263E+00
          0                 6           2             4    7     1       0.2347186232E-02       4    7    1         0.1239135446E+00      0.2238977688E+00
          0                 7           2             4    7     1       0.9607345638E-03       4    7    1         0.5072357657E-01      0.9143947552E-01
          0                 8           2             4    7     1       0.3932032905E-03       4    7    1         0.2076142631E-01      0.3734415762E-01
          0                 9           2             4    7     1       0.1609128224E-03       4    7    1         0.8496943536E-02      0.1525162543E-01
          0                10           1             4    7     1       0.6584545206E-04       4    7    1         0.3477190019E-02      0.6228935020E-02

    ------------------------------------------------
       NWT REQUIRED           10 OUTER ITERATIONS 
       AND A TOTAL OF         19 INNER ITERATIONS.
    ------------------------------------------------

 NO OUTPUT CONTROL FOR STRESS PERIOD   47   TIME STEP   21
 
 SOLVING FOR HEAD 
                                                   Max.-Head-Change                         Max.-Flux-Residual
  Residual-Control   Outer-Iter.   Inner-Iter.     Column Row Layer    Maximum-Head-Change  Column Row Layer    Maximum-Flux-Residual          L2-NORM 
          0                 1           2             4    7     1       0.1982850510E+00       4    7    1         0.1045375242E+02      0.2058773475E+02
          0                 2           2             4    7     1       0.8120449888E-01       4    7    1         0.4286390404E+01      0.7881241019E+01
          0                 3           2             4    7     1       0.3325189892E-01       4    7    1         0.1754940143E+01      0.3197698783E+01
          0                 4           2             4    7     1       0.1361450697E-01       4    7    1         0.7186310182E+00      0.1305972274E+01
          0                 5           2             4    7     1       0.5573635958E-02       4    7    1         0.2942255507E+00      0.5333141464E+00
          0                 6           2             4    7     1       0.2281543029E-02       4    7    1         0.1204503165E+00      0.2177956791E+00
          0                 7           2             4    7     1       0.9338437724E-03       4    7    1         0.4930477848E-01      0.8894459588E-01
          0                 8           2             4    7     1       0.3821882461E-03       4    7    1         0.2018022276E-01      0.3632409995E-01
          0                 9           2             4    7     1       0.1564011410E-03       4    7    1         0.8258873431E-02      0.1483456033E-01
          0                10           1             4    7     1       0.6399762654E-04       4    7    1         0.3379679571E-02      0.6058410577E-02

    ------------------------------------------------
       NWT REQUIRED           10 OUTER ITERATIONS 
       AND A TOTAL OF         19 INNER ITERATIONS.
    ------------------------------------------------

 NO OUTPUT CONTROL FOR STRESS PERIOD   47   TIME STEP   22
 
 SOLVING FOR HEAD 
                                                   Max.-Head-Change                         Max.-Flux-Residual
  Residual-Control   Outer-Iter.   Inner-Iter.     Column Row Layer    Maximum-Head-Change  Column Row Layer    Maximum-Flux-Residual          L2-NORM 
          0                 1           2             4    7     1       0.1927773159E+00       4    7    1         0.1016233855E+02      0.2019705043E+02
          0                 2           2             4    7     1       0.7894955832E-01       4    7    1         0.4167434727E+01      0.7676078452E+01
          0                 3           2             4    7     1       0.3232883261E-01       4    7    1         0.1706204017E+01      0.3112359341E+01
          0                 4           2             4    7     1       0.1323668868E-01       4    7    1         0.6986835262E+00      0.1271092221E+01
          0                 5           2             4    7     1       0.5419007676E-02       4    7    1         0.2860609399E+00      0.5190588369E+00
          0                 6           2             4    7     1       0.2218264825E-02       4    7    1         0.1171088833E+00      0.2119697796E+00
          0                 7           2             4    7     1       0.9079508050E-03       4    7    1         0.4793739487E-01      0.8656361730E-01
          0                 8           2             4    7     1       0.3715938821E-03       4    7    1         0.1962070890E-01      0.3535101153E-01
          0                 9           2             4    7     1       0.1520666696E-03       4    7    1         0.8029946284E-02      0.1443686233E-01
          0                10           1             4    7     1       0.6222438527E-04       4    7    1         0.3286019961E-02      0.5895871275E-02

    ------------------------------------------------
       NWT REQUIRED           10 OUTER ITERATIONS 
       AND A TOTAL OF         19 INNER ITERATIONS.
    ------------------------------------------------

 NO OUTPUT CONTROL FOR STRESS PERIOD   47   TIME STEP   23
 
 SOLVING FOR HEAD 
                                                   Max.-Head-Change                         Max.-Flux-Residual
  Residual-Control   Outer-Iter.   Inner-Iter.     Column Row Layer    Maximum-Head-Change  Column Row Layer    Maximum-Flux-Residual          L2-NORM 
          0                 1           2             4    7     1       0.1874460206E+00       4    7    1         0.9880148541E+01      0.1982719742E+02
          0                 2           2             4    7     1       0.7672788210E-01       4    7    1         0.4051982722E+01      0.7479015995E+01
          0                 3           2             4    7     1       0.3140320191E-01       4    7    1         0.1658011019E+01      0.3030181601E+01
          0                 4           2             4    7     1       0.1285155704E-01       4    7    1         0.6786126387E+00      0.1237444606E+01
          0                 5           2             4    7     1       0.5258960042E-02       4    7    1         0.2777119922E+00      0.5052831668E+00
          0                 6           2             4    7     1       0.2151828514E-02       4    7    1         0.1136401557E+00      0.2063300506E+00
          0                 7           2             4    7     1       0.8804009042E-03       4    7    1         0.4649781986E-01      0.8425469732E-01
          0                 8           2             4    7     1       0.3601800815E-03       4    7    1         0.1902385977E-01      0.3440572815E-01
          0                 9           2             4    7     1       0.1473420201E-03       4    7    1         0.7782718328E-02      0.1404985698E-01
          0                10           1             4    7     1       0.6027019002E-04       4    7    1         0.3183698683E-02      0.5737428291E-02

    ------------------------------------------------
       NWT REQUIRED           10 OUTER ITERATIONS 
       AND A TOTAL OF         19 INNER ITERATIONS.
    ------------------------------------------------

 NO OUTPUT CONTROL FOR STRESS PERIOD   47   TIME STEP   24
 
 SOLVING FOR HEAD 
                                                   Max.-Head-Change                         Max.-Flux-Residual
  Residual-Control   Outer-Iter.   Inner-Iter.     Column Row Layer    Maximum-Head-Change  Column Row Layer    Maximum-Flux-Residual          L2-NORM 
          0                 1           2             4    7     1       0.1821276060E+00       4    7    1         0.9603647067E+01      0.1899324876E+02
          0                 2           2             4    7     1       0.7453499628E-01       4    7    1         0.3936939350E+01      0.7040389193E+01
          0                 3           2             4    7     1       0.3049532124E-01       4    7    1         0.1610552003E+01      0.2838709241E+01
          0                 4           2             4    7     1       0.1247377565E-01       4    7    1         0.6589457750E+00      0.1155101320E+01
          0                 5           2             4    7     1       0.5101028031E-02       4    7    1         0.2695203045E+00      0.4700412189E+00
          0                 6           2             4    7     1       0.2085529816E-02       4    7    1         0.1102125932E+00      0.1912978015E+00
          0                 7           2             4    7     1       0.8524680624E-03       4    7    1         0.4505782912E-01      0.7786050505E-01
          0                 8           2             4    7     1       0.3483750961E-03       4    7    1         0.1841675515E-01      0.3169213168E-01
          0                 9           1             4    7     1       0.1423402298E-03       4    7    1         0.7525997153E-02      0.1290051113E-01
          0                10           1             4    7     1       0.5814656744E-04       4    7    1         0.3074874513E-02      0.5251452173E-02

    ------------------------------------------------
       NWT REQUIRED           10 OUTER ITERATIONS 
       AND A TOTAL OF         18 INNER ITERATIONS.
    ------------------------------------------------

 NO OUTPUT CONTROL FOR STRESS PERIOD   47   TIME STEP   25
 
 SOLVING FOR HEAD 
                                                   Max.-Head-Change                         Max.-Flux-Residual
  Residual-Control   Outer-Iter.   Inner-Iter.     Column Row Layer    Maximum-Head-Change  Column Row Layer    Maximum-Flux-Residual          L2-NORM 
          0                 1           2             4    7     1       0.1769074747E+00       4    7    1         0.9329197733E+01      0.1841513723E+02
          0                 2           2             4    7     1       0.7237604420E-01       4    7    1         0.3824019203E+01      0.6754246817E+01
          0                 3           2             4    7     1       0.2960059348E-01       4    7    1         0.1563792963E+01      0.2722065045E+01
          0                 4           2             4    7     1       0.1210250447E-01       4    7    1         0.6395626009E+00      0.1107938899E+01
          0                 5           2             4    7     1       0.4946864193E-02       4    7    1         0.2614753054E+00      0.4509456649E+00
          0                 6           2             4    7     1       0.2021502553E-02       4    7    1         0.1068716872E+00      0.1835551998E+00
          0                 7           2             4    7     1       0.8258798662E-03       4    7    1         0.4367025098E-01      0.7471787518E-01
          0                 8           2             4    7     1       0.3373382546E-03       4    7    1         0.1784056636E-01      0.3041559664E-01
          0                 9           1             4    7     1       0.1377613965E-03       4    7    1         0.7286839487E-02      0.1238168753E-01
          0                10           1             4    7     1       0.5624826501E-04       4    7    1         0.2975667173E-02      0.5040495902E-02

    ------------------------------------------------
       NWT REQUIRED           10 OUTER ITERATIONS 
       AND A TOTAL OF         18 INNER ITERATIONS.
    ------------------------------------------------

 NO OUTPUT CONTROL FOR STRESS PERIOD   47   TIME STEP   26
 
 SOLVING FOR HEAD 
                                                   Max.-Head-Change                         Max.-Flux-Residual
  Residual-Control   Outer-Iter.   Inner-Iter.     Column Row Layer    Maximum-Head-Change  Column Row Layer    Maximum-Flux-Residual          L2-NORM 
          0                 1           2             4    7     1       0.1717809180E+00       4    7    1         0.9059610059E+01      0.1802434457E+02
          0                 2           2             4    7     1       0.7026449312E-01       4    7    1         0.3713130278E+01      0.6559551625E+01
          0                 3           2             4    7     1       0.2873226648E-01       4    7    1         0.1518105333E+01      0.2641814165E+01
          0                 4           2             4    7     1       0.1174590328E-01       4    7    1         0.6207822169E+00      0.1075356409E+01
          0                 5           2             4    7     1       0.4800580971E-02       4    7    1         0.2537644999E+00      0.4377057252E+00
          0                 6           2             4    7     1       0.1961551564E-02       4    7    1         0.1037092691E+00      0.1781717366E+00
          0                 7           2             4    7     1       0.8013297957E-03       4    7    1         0.4237443359E-01      0.7252782811E-01
          0                 8           2             4    7     1       0.3272916987E-03       4    7    1         0.1731000596E-01      0.2952433693E-01
          0                 9           1             4    7     1       0.1336524139E-03       4    7    1         0.7069747404E-02      0.1201888198E-01
          0                10           1             4    7     1       0.5456852775E-04       4    7    1         0.2886887363E-02      0.4892778216E-02

    ------------------------------------------------
       NWT REQUIRED           10 OUTER ITERATIONS 
       AND A TOTAL OF         18 INNER ITERATIONS.
    ------------------------------------------------

 NO OUTPUT CONTROL FOR STRESS PERIOD   47   TIME STEP   27
 
 SOLVING FOR HEAD 
                                                   Max.-Head-Change                         Max.-Flux-Residual
  Residual-Control   Outer-Iter.   Inner-Iter.     Column Row Layer    Maximum-Head-Change  Column Row Layer    Maximum-Flux-Residual          L2-NORM 
          0                 1           2             4    7     1       0.1653201989E+00       4    7    1         0.8796005693E+01      0.1615463086E+02
          0                 2           2             4    8     1      -0.1824276550E+01       5    8    1        -0.9935235520E+02      0.2400824635E+03
          0                 3           2             4    7     1      -0.1217103916E+00       4    7    1        -0.6708862911E+01      0.1070102777E+02
          0                 4           2             4    7     1       0.8288340710E-02       4    7    1         0.4692895592E+00      0.7426635130E+00
          0                 5           2             4    7     1      -0.3298830856E-03       4    7    1        -0.1918530149E-01      0.3024931674E-01
          0                 6           1             4    7     1       0.4070614947E-05       4    7    1         0.2431512316E-03      0.3848374841E-03

    ------------------------------------------------
       NWT REQUIRED            6 OUTER ITERATIONS 
       AND A TOTAL OF         11 INNER ITERATIONS.
    ------------------------------------------------

 NO OUTPUT CONTROL FOR STRESS PERIOD   47   TIME STEP   28
 
 SOLVING FOR HEAD 
                                                   Max.-Head-Change                         Max.-Flux-Residual
  Residual-Control   Outer-Iter.   Inner-Iter.     Column Row Layer    Maximum-Head-Change  Column Row Layer    Maximum-Flux-Residual          L2-NORM 
          0                 1           2             6    7     1       0.3773588186E-01       6    7    1         0.2052273412E+01      0.4780866959E+01
          0                 2           2             6    7     1      -0.3670684208E-02       6    7    1        -0.2052281072E+00      0.4780879111E+00
          0                 3           2             6    7     1       0.2499598698E-03       6    7    1         0.1436596644E-01      0.3346614375E-01
          0                 4           1             6    7     1      -0.9946140952E-05       6    7    1        -0.5875688878E-03      0.1368768117E-02

    ------------------------------------------------
       NWT REQUIRED            4 OUTER ITERATIONS 
       AND A TOTAL OF          7 INNER ITERATIONS.
    ------------------------------------------------

 NO OUTPUT CONTROL FOR STRESS PERIOD   47   TIME STEP   29
 
 SOLVING FOR HEAD 
                                                   Max.-Head-Change                         Max.-Flux-Residual
  Residual-Control   Outer-Iter.   Inner-Iter.     Column Row Layer    Maximum-Head-Change  Column Row Layer    Maximum-Flux-Residual          L2-NORM 
          0                 1           2             6    7     1       0.3606253468E-01       6    7    1         0.1959780302E+01      0.4603649489E+01
          0                 2           2             6    7     1      -0.3507913363E-02       6    7    1        -0.1959788177E+00      0.4603659927E+00
          0                 3           2             6    7     1       0.2388757765E-03       6    7    1         0.1371851569E-01      0.3222559346E-01
          0                 4           1             6    7     1      -0.9505093562E-05       6    7    1        -0.5610881058E-03      0.1318032510E-02

    ------------------------------------------------
       NWT REQUIRED            4 OUTER ITERATIONS 
       AND A TOTAL OF          7 INNER ITERATIONS.
    ------------------------------------------------

 NO OUTPUT CONTROL FOR STRESS PERIOD   47   TIME STEP   30



 STREAM LISTING     PERIOD     47   STEP       30

 LAYER ROW COL. STREAM  RCH.  FLOW INTO     FLOW TO   FLOW OUT OF   OVRLND.     DIRECT     STREAM       STREAM     STREAM     STREAM   STREAMBED  STREAMBED
                SEG.NO.  NO.  STRM. RCH.    AQUIFER    STRM. RCH.    RUNOFF     PRECIP       ET          HEAD       DEPTH      WIDTH   CONDCTNC.   GRADIENT

   1    1    1     1     1    7.9710E+00  1.2901E-01   7.8420E+00  0.000E+00  0.000E+00  0.000E+00  1.09388E+03  8.328E-01  7.480E+00  3.366E-02  1.278E+00
   1    2    2     1     2    7.8420E+00  1.9811E-01   7.6439E+00  0.000E+00  0.000E+00  0.000E+00  1.08889E+03  8.271E-01  7.395E+00  5.177E-02  1.276E+00
   1    3    3     1     3    7.6439E+00  1.6733E-01   7.4765E+00  0.000E+00  0.000E+00  0.000E+00  1.08324E+03  8.206E-01  7.300E+00  4.380E-02  1.274E+00
   1    3    4     1     4    7.4765E+00  1.5276E-01   7.3238E+00  0.000E+00  0.000E+00  0.000E+00  1.07822E+03  8.148E-01  7.215E+00  4.004E-02  1.272E+00
   1    4    5     2     1    5.3238E+00  2.7067E-01   5.0531E+00  0.000E+00  0.000E+00  0.000E+00  1.07240E+03  4.701E-01  1.200E+01  7.800E-02  1.157E+00
   1    5    6     2     2    5.0531E+00  2.0742E-01   4.8457E+00  0.000E+00  0.000E+00  0.000E+00  1.06697E+03  4.570E-01  1.200E+01  6.000E-02  1.152E+00
   1    6    6     2     3    4.8457E+00  2.0672E-01   4.6390E+00  0.000E+00  0.000E+00  0.000E+00  1.06224E+03  4.454E-01  1.200E+01  6.000E-02  1.148E+00
   1    7    6     2     4    4.6390E+00  2.0602E-01   4.4330E+00  0.000E+00  0.000E+00  0.000E+00  1.05751E+03  4.337E-01  1.200E+01  6.000E-02  1.145E+00
   1    8    6     2     5    4.4330E+00  2.0530E-01   4.2276E+00  0.000E+00  0.000E+00  0.000E+00  1.05278E+03  4.218E-01  1.200E+01  6.000E-02  1.141E+00
   1    3    5     3     1    2.0000E+00  2.8252E-01   1.7175E+00  0.000E+00  0.000E+00  0.000E+00  1.07555E+03  1.909E+00  9.636E+00  7.227E-02  1.955E+00
   1    3    6     3     2    1.7175E+00  2.4905E-01   1.4684E+00  0.000E+00  0.000E+00  0.000E+00  1.07264E+03  1.727E+00  8.909E+00  6.682E-02  1.864E+00
   1    3    7     3     3    1.4684E+00  1.9718E-01   1.2712E+00  0.000E+00  0.000E+00  0.000E+00  1.06987E+03  1.555E+00  8.218E+00  5.547E-02  1.777E+00
   1    4    8     3     4    1.2712E+00  2.2567E-01   1.0456E+00  0.000E+00  0.000E+00  0.000E+00  1.06682E+03  1.364E+00  7.455E+00  6.709E-02  1.682E+00
   1    5    8     3     5    1.0456E+00  1.5790E-01   8.8768E-01  0.000E+00  0.000E+00  0.000E+00  1.06362E+03  1.164E+00  6.655E+00  4.991E-02  1.582E+00
   1    6    8     3     6    8.8768E-01  5.5980E-02   8.3170E-01  0.000E+00  0.000E+00  0.000E+00  1.06158E+03  1.036E+00  6.145E+00  1.844E-02  1.518E+00
   1    5   10     4     1    1.0000E+01  9.0919E-02   9.9091E+00  0.000E+00  0.000E+00  0.000E+00  1.07836E+03  6.368E-01  1.000E+01  2.500E-02  1.212E+00
   1    5    9     4     2    9.9091E+00  1.8158E-01   9.7275E+00  0.000E+00  0.000E+00  0.000E+00  1.07154E+03  6.315E-01  1.000E+01  5.000E-02  1.211E+00
   1    6    8     4     3    9.7275E+00  1.2689E-01   9.6006E+00  0.000E+00  0.000E+00  0.000E+00  1.06381E+03  6.256E-01  1.000E+01  3.500E-02  1.209E+00
   1    6    8     5     1    1.0432E+01  2.2686E-01   1.0205E+01  0.000E+00  0.000E+00  0.000E+00  1.05868E+03  6.790E-01  1.542E+01  6.166E-02  1.226E+00
   1    7    7     5     2    1.0205E+01  2.7894E-01   9.9265E+00  0.000E+00  0.000E+00  0.000E+00  1.05417E+03  6.732E-01  1.519E+01  7.594E-02  1.224E+00
   1    8    7     5     3    9.9265E+00  1.9221E-01   9.7343E+00  0.000E+00  0.000E+00  0.000E+00  1.04992E+03  6.676E-01  1.497E+01  5.241E-02  1.223E+00
   1    8    6     5     4    9.7343E+00  1.3577E-01   9.5985E+00  0.000E+00  0.000E+00  0.000E+00  1.04691E+03  6.637E-01  1.482E+01  3.706E-02  1.221E+00
   1    9    6     6     1    1.3826E+01  2.3109E-01   1.3595E+01  0.000E+00  0.000E+00  0.000E+00  1.04358E+03  8.515E-01  1.200E+01  6.000E-02  1.284E+00
   1   10    7     6     2    1.3595E+01  2.3057E-01   1.3365E+01  0.000E+00  0.000E+00  0.000E+00  1.03902E+03  8.429E-01  1.200E+01  6.000E-02  1.281E+00
   1   11    7     6     3    1.3365E+01  2.3005E-01   1.3134E+01  0.000E+00  0.000E+00  0.000E+00  1.03447E+03  8.342E-01  1.200E+01  6.000E-02  1.278E+00
   1   12    7     6     4    1.3134E+01  2.2953E-01   1.2905E+01  0.000E+00  0.000E+00  0.000E+00  1.02992E+03  8.255E-01  1.200E+01  6.000E-02  1.275E+00
   1   13    7     6     5    1.2905E+01  1.1384E-02   1.2894E+01  0.000E+00  0.000E+00  0.000E+00  1.02673E+03  8.209E-01  1.200E+01  2.400E-02  1.581E-01
   1   14    9     7     1    1.5000E+02  1.4320E+00   1.4857E+02  0.000E+00  0.000E+00  0.000E+00  1.03987E+03  2.287E+00  5.529E+01  5.593E-01  8.535E-01
   1   13    8     7     2    1.4857E+02  2.1126E+00   1.4646E+02  0.000E+00  0.000E+00  0.000E+00  1.03478E+03  2.278E+00  5.525E+01  6.147E-01  1.146E+00
   1   13    7     7     3    1.4646E+02  1.9155E+00   1.4454E+02  0.000E+00  0.000E+00  0.000E+00  1.02969E+03  2.267E+00  5.520E+01  5.583E-01  1.144E+00
   1   13    6     8     1    1.5743E+02  1.2752E+00   1.5616E+02  0.000E+00  0.000E+00  0.000E+00  1.02474E+03  2.864E+00  4.153E+01  4.232E-01  1.004E+00
   1   13    5     8     2    1.5616E+02  5.1061E-01   1.5565E+02  0.000E+00  0.000E+00  0.000E+00  1.01848E+03  2.858E+00  4.144E+01  4.223E-01  4.031E-01
   1   13    4     8     3    1.5565E+02 -1.2755E+00   1.5692E+02  0.000E+00  0.000E+00  0.000E+00  1.01224E+03  2.861E+00  4.148E+01  4.227E+00 -1.006E-01
   1   13    3     8     4    1.5692E+02 -3.0781E+00   1.6000E+02  0.000E+00  0.000E+00  0.000E+00  1.00600E+03  2.875E+00  4.169E+01  4.249E+00 -2.415E-01
   1   13    2     8     5    1.6000E+02 -2.4311E+00   1.6243E+02  0.000E+00  0.000E+00  0.000E+00  9.99769E+02  2.894E+00  4.196E+01  4.276E+00 -1.895E-01
   1   13    1     8     6    1.6243E+02 -1.9402E+00   1.6437E+02  0.000E+00  0.000E+00  0.000E+00  9.94784E+02  2.909E+00  4.218E+01  2.579E+00 -2.508E-01
   1    8    6     9     1    0.0000E+00  0.0000E+00   0.0000E+00  0.000E+00  0.000E+00  0.000E+00  1.07875E+03  0.000E+00  4.000E+00  0.000E+00  1.000E+00
   1    8    5     9     2    0.0000E+00  0.0000E+00   0.0000E+00  0.000E+00  0.000E+00  0.000E+00  1.07825E+03  0.000E+00  4.000E+00  0.000E+00  1.000E+00





UNSATURATED ZONE PACKAGE VOLUMETRIC BUDGET FOR  TIME STEP    30 STRESS PERIOD   47
  ------------------------------------------------------------------------------



     CUMULATIVE VOLUMES      L**3       RATES FOR THIS TIME STEP      L**3/T
     ------------------                 ------------------------

           IN:                                      IN:
           ---                                      ---
        INFILTRATION = 13006229256.4228          INFILTRATION =           0.8475

          OUT:                                     OUT:
          ----                                     ----
              UZF ET =  1705829536.0336                UZF ET =           1.5675
        UZF RECHARGE = 10658669964.1130          UZF RECHARGE =       0.0000E+00

            IN - OUT =   641729756.2761              IN - OUT =          -0.7200

          STORAGE:                                 STORAGE:
          --------                                 --------
      STORAGE CHANGE =   643111082.5831        STORAGE CHANGE =          -0.7200

 PERCENT DISCREPANCY IS DIFFERENCE BETWEEN IN-OUT MINUS CHANGE IN STORAGE
 DIVIDED BY THE AVERAGE OF IN AND OUT TIMES 100

 PERCENT DISCREPANCY =          -0.00     PERCENT DISCREPANCY =           0.00






1
  VOLUMETRIC BUDGET FOR AGRICULTURAL FIELDS AT  END OF TIME STEP   30, STRESS PERIOD  47
  ------------------------------------------------------------------------------

     CUMULATIVE VOLUMES      L**3       RATES FOR THIS TIME STEP      L**3/T
     ------------------                 ------------------------

           IN:                                      IN:
           ---                                      ---
               AG WELLS  = 12334709760.0000                 AG WELLS  =           0.0000
      DIVERSION SEGMENTS =   568930048.0000        DIVERSION SEGMENTS =           0.0000
           GW IRRIGATION =           0.0000             GW IRRIGATION =           0.0000
           SW IRRIGATION =           0.0000             SW IRRIGATION =           0.0000
        SYSTEM LOSSES GW =           0.0000          SYSTEM LOSSES GW =           0.0000
        SYSTEM LOSSES SW =           0.0000          SYSTEM LOSSES SW =           0.0000

                TOTAL IN = 12903640064.0000                  TOTAL IN =           0.0000

          OUT:                                     OUT:
          ----                                     ----
               AG WELLS  =           0.0000                 AG WELLS  =           0.0000
      DIVERSION SEGMENTS =           0.0000        DIVERSION SEGMENTS =           0.0000
           GW IRRIGATION = 12334709760.0000             GW IRRIGATION =           0.0000
           SW IRRIGATION =   568940352.0000             SW IRRIGATION =           0.0000
        SYSTEM LOSSES GW =           0.0000          SYSTEM LOSSES GW =           0.0000
        SYSTEM LOSSES SW =           0.0000          SYSTEM LOSSES SW =           0.0000

               TOTAL OUT = 12903650304.0000                 TOTAL OUT =           0.0000

                IN - OUT =      -10240.0000                  IN - OUT =           0.0000

     PERCENT DISCREPANCY =          -0.00         PERCENT DISCREPANCY =           0.00



1
  VOLUMETRIC BUDGET FOR ENTIRE MODEL AT END OF TIME STEP   30, STRESS PERIOD  47
  ------------------------------------------------------------------------------

     CUMULATIVE VOLUMES      L**3       RATES FOR THIS TIME STEP      L**3/T
     ------------------                 ------------------------

           IN:                                      IN:
           ---                                      ---
             STORAGE     = 11112745984.0000               STORAGE     =          10.1200
       CONSTANT HEAD     =           0.0000         CONSTANT HEAD     =           0.0000
     HEAD DEP BOUNDS     =    35083520.0000       HEAD DEP BOUNDS     =           0.2923
      STREAM LEAKAGE     =  1500424064.0000        STREAM LEAKAGE     =          12.3233
        UZF RECHARGE     = 10658667520.0000          UZF RECHARGE     =           0.0000
               GW ET     =           0.0000                 GW ET     =           0.0000
     SURFACE LEAKAGE     =           0.0000       SURFACE LEAKAGE     =           0.0000
           AG WELLS      =           0.0000             AG WELLS      =           0.0000

                TOTAL IN = 23306919936.0000                  TOTAL IN =          22.7356

          OUT:                                     OUT:
          ----                                     ----
             STORAGE     =  9813757952.0000               STORAGE     =          13.7243
       CONSTANT HEAD     =           0.0000         CONSTANT HEAD     =           0.0000
     HEAD DEP BOUNDS     =    34828636.0000       HEAD DEP BOUNDS     =           0.2864
      STREAM LEAKAGE     =  1123454080.0000        STREAM LEAKAGE     =           8.7249
        UZF RECHARGE     =           0.0000          UZF RECHARGE     =           0.0000
               GW ET     =           0.0000                 GW ET     =           0.0000
     SURFACE LEAKAGE     =           0.0000       SURFACE LEAKAGE     =           0.0000
           AG WELLS      = 12334709760.0000             AG WELLS      =           0.0000

               TOTAL OUT = 23306749952.0000                 TOTAL OUT =          22.7356

                IN - OUT =      169984.0000                  IN - OUT =       1.9073E-05

     PERCENT DISCREPANCY =           0.00         PERCENT DISCREPANCY =           0.00






         TIME SUMMARY AT END OF TIME STEP   30 IN STRESS PERIOD   47
                    SECONDS     MINUTES      HOURS       DAYS        YEARS
                    -----------------------------------------------------------
   TIME STEP LENGTH  87667.      1461.1      24.352      1.0147     2.77799E-03
 STRESS PERIOD TIME 2.63000E+06  43833.      730.56      30.440     8.33397E-02
         TOTAL TIME 1.21065E+08 2.01775E+06  33629.      1401.2      3.8363    
1
1
                            STRESS PERIOD NO.   48, LENGTH =   2630000.    
                            -----------------------------------------------

                              NUMBER OF TIME STEPS =    30

                               MULTIPLIER FOR DELT =     1.000

                            INITIAL TIME STEP SIZE =   87666.66    

 REUSING NON-PARAMETER GHB CELLS FROM LAST STRESS PERIOD

      2 GHB CELLS

 REUSING STREAM SEGMENT DATA FROM LAST STRESS PERIOD



            AREAL INFILTRATION RATE
 READING ON UNIT   19 WITH FORMAT: (FREE)              

            1           2           3           4           5           6           7           8           9          10
 ........................................................................................................................
   1   1.0000E-10  2.0000E-10   0.000       0.000       0.000       0.000       0.000       0.000       0.000       0.000    
   2   2.0000E-10  1.0000E-10  2.0000E-10   0.000       0.000      8.0000E-10  8.0000E-10  5.0000E-10   0.000       0.000    
   3    0.000      5.0000E-10  1.0000E-10  1.0000E-10  8.0000E-10  8.0000E-10  5.0000E-10  5.0000E-10   0.000       0.000    
   4   8.0000E-10  5.0000E-10  1.0000E-10  1.0000E-10  1.0000E-10  1.0000E-10  1.0000E-10  1.0000E-10  2.0000E-10   0.000    
   5   8.0000E-10  5.0000E-10  1.0000E-10  1.0000E-10  1.0000E-10  1.0000E-10  1.0000E-10  1.0000E-10  1.0000E-10  1.0000E-10
   6   8.0000E-10  5.0000E-10  5.0000E-10  2.0000E-10  2.0000E-10  1.0000E-10  1.0000E-10  1.0000E-10  1.0000E-10  5.0000E-10
   7   8.0000E-10  5.0000E-10  5.0000E-10  2.0000E-10  2.0000E-10  1.0000E-10  1.0000E-10  2.0000E-10  2.0000E-10   0.000    
   8    0.000      5.0000E-10  5.0000E-10  2.0000E-10  2.0000E-10  1.0000E-10  1.0000E-10  2.0000E-10  5.0000E-10   0.000    
   9    0.000      5.0000E-10  5.0000E-10  2.0000E-10  2.0000E-10  1.0000E-10  1.0000E-10  2.0000E-10  5.0000E-10   0.000    
  10    0.000      5.0000E-10  5.0000E-10  2.0000E-10  2.0000E-10  1.0000E-10  1.0000E-10  2.0000E-10  5.0000E-10  8.0000E-10
  11    0.000      1.0000E-10  1.0000E-10  1.0000E-10  1.0000E-10  1.0000E-10  1.0000E-10  2.0000E-10  5.0000E-10   0.000    
  12   1.0000E-10  1.0000E-10  1.0000E-10  1.0000E-10  1.0000E-10  1.0000E-10  1.0000E-10  1.0000E-10  2.0000E-10   0.000    
  13   1.0000E-10  1.0000E-10  2.0000E-10  2.0000E-10  2.0000E-10  2.0000E-10  2.0000E-10  1.0000E-10  1.0000E-10   0.000    
  14    0.000      2.0000E-10  5.0000E-10  5.0000E-10  5.0000E-10  5.0000E-10  5.0000E-10  2.0000E-10  1.0000E-10   0.000    
  15    0.000       0.000      8.0000E-10  8.0000E-10  8.0000E-10  8.0000E-10   0.000       0.000       0.000       0.000    

                  ET RATE =  5.000000E-10

 USING ET EXTINCTION DEPTH FROM PREVIOUS STRESS PERIOD. CURRENT PERIOD IS:      48

 USING EXTINCTION WATER CONTENT FROM PREVIOUS STRESS PERIOD. CURRENT PERIOD IS:      48

 USING AIR ENTRY PRESSURE FROM PREVIOUS STRESS PERIOD. CURRENT PERIOD IS:      48

 USING ROOT PRESSURE HEAD FROM PREVIOUS STRESS PERIOD. CURRENT PERIOD IS:      48

 USING ROOT ACTIVITY FROM PREVIOUS STRESS PERIOD. CURRENT PERIOD IS:      48

 PROCESSING AG STRESS PERIOD DATA

 READING AG STRESS PERIOD DATA

 READING IRRIGATION SEGMENT

 READING IRRIGATION WELL

 READING SUPPLEMENTAL WELL

 END PROCESSING AG STRESS PERIOD DATA OPTIONS
 
 SOLVING FOR HEAD 
                                                   Max.-Head-Change                         Max.-Flux-Residual
  Residual-Control   Outer-Iter.   Inner-Iter.     Column Row Layer    Maximum-Head-Change  Column Row Layer    Maximum-Flux-Residual          L2-NORM 
          0                 1           2             6    7     1       0.3449962609E-01       6    7    1         0.1873421925E+01      0.4437917334E+01
          0                 2           2             6    7     1      -0.3355885055E-02       6    7    1        -0.1873429917E+00      0.4437926817E+00
          0                 3           2             6    7     1       0.2285232118E-03       6    7    1         0.1311400751E-01      0.3106544340E-01
          0                 4           1             6    7     1      -0.9093154574E-05       6    7    1        -0.5363636833E-03      0.1270582889E-02

    ------------------------------------------------
       NWT REQUIRED            4 OUTER ITERATIONS 
       AND A TOTAL OF          7 INNER ITERATIONS.
    ------------------------------------------------

 NO OUTPUT CONTROL FOR STRESS PERIOD   48   TIME STEP    1
 
 SOLVING FOR HEAD 
                                                   Max.-Head-Change                         Max.-Flux-Residual
  Residual-Control   Outer-Iter.   Inner-Iter.     Column Row Layer    Maximum-Head-Change  Column Row Layer    Maximum-Flux-Residual          L2-NORM 
          0                 1           2             6    7     1       0.3303476266E-01       6    7    1         0.1792516076E+01      0.4282732529E+01
          0                 2           2             6    7     1      -0.3213393763E-02       6    7    1        -0.1792524104E+00      0.4282742056E+00
          0                 3           2             6    7     1       0.2188200835E-03       6    7    1         0.1254766654E-01      0.2997914862E-01
          0                 4           1             6    7     1      -0.8707057703E-05       6    7    1        -0.5132003155E-03      0.1226148671E-02

    ------------------------------------------------
       NWT REQUIRED            4 OUTER ITERATIONS 
       AND A TOTAL OF          7 INNER ITERATIONS.
    ------------------------------------------------

 NO OUTPUT CONTROL FOR STRESS PERIOD   48   TIME STEP    2
 
 SOLVING FOR HEAD 
                                                   Max.-Head-Change                         Max.-Flux-Residual
  Residual-Control   Outer-Iter.   Inner-Iter.     Column Row Layer    Maximum-Head-Change  Column Row Layer    Maximum-Flux-Residual          L2-NORM 
          0                 1           2             4    6     1       0.6660561388E-01       4    6    1         0.3606731176E+01      0.5488587356E+01
          0                 2           2             4    6     1       0.2340463444E-01       4    6    1         0.1279408143E+01      0.1344386819E+01
          0                 3           2             4    6     1       0.8224211533E-02       4    6    1         0.4484282824E+00      0.4493733372E+00
          0                 4           2             4    6     1       0.2889927730E-02       4    6    1         0.1576482873E+00      0.1576523178E+00
          0                 5           2             4    6     1       0.1015499769E-02       4    6    1         0.5539325536E-01      0.5539346808E-01
          0                 6           2             4    6     1       0.3568393361E-03       4    6    1         0.1946495798E-01      0.1946501685E-01
          0                 7           2             4    6     1       0.1253907883E-03       4    6    1         0.6839836836E-02      0.6839857941E-02
          0                 8           1             4    6     1       0.4406142597E-04       4    6    1         0.2403470635E-02      0.2403478078E-02

    ------------------------------------------------
       NWT REQUIRED            8 OUTER ITERATIONS 
       AND A TOTAL OF         15 INNER ITERATIONS.
    ------------------------------------------------

 NO OUTPUT CONTROL FOR STRESS PERIOD   48   TIME STEP    3
 
 SOLVING FOR HEAD 
                                                   Max.-Head-Change                         Max.-Flux-Residual
  Residual-Control   Outer-Iter.   Inner-Iter.     Column Row Layer    Maximum-Head-Change  Column Row Layer    Maximum-Flux-Residual          L2-NORM 
          0                 1           2             4    6     1       0.8161719878E-01       4    6    1         0.4422203702E+01      0.5988233115E+01
          0                 2           2             4    6     1       0.2867909730E-01       4    6    1         0.1567498451E+01      0.1618707617E+01
          0                 3           2             4    6     1       0.1007745511E-01       4    6    1         0.5495000597E+00      0.5502441471E+00
          0                 4           2             4    6     1       0.3541087431E-02       4    6    1         0.1931722341E+00      0.1931753416E+00
          0                 5           2             4    6     1       0.1244292818E-02       4    6    1         0.6787416472E-01      0.6787442124E-01
          0                 6           2             4    6     1       0.4372286341E-03       4    6    1         0.2385035588E-01      0.2385042796E-01
          0                 7           2             4    6     1       0.1536365757E-03       4    6    1         0.8380695127E-02      0.8380721150E-02
          0                 8           1             4    6     1       0.5398593747E-04       4    6    1         0.2944871106E-02      0.2944880171E-02

    ------------------------------------------------
       NWT REQUIRED            8 OUTER ITERATIONS 
       AND A TOTAL OF         15 INNER ITERATIONS.
    ------------------------------------------------

 NO OUTPUT CONTROL FOR STRESS PERIOD   48   TIME STEP    4
 
 SOLVING FOR HEAD 
                                                   Max.-Head-Change                         Max.-Flux-Residual
  Residual-Control   Outer-Iter.   Inner-Iter.     Column Row Layer    Maximum-Head-Change  Column Row Layer    Maximum-Flux-Residual          L2-NORM 
          0                 1           2             4    6     1       0.7716091742E-01       4    6    1         0.4093392538E+01      0.7156210590E+01
          0                 2           2             4    6     1       0.2783721840E-01       4    6    1         0.1490657482E+01      0.2193942244E+01
          0                 3           2             4    6     1       0.1004161964E-01       4    6    1         0.5364743794E+00      0.7758215922E+00
          0                 4           2             4    6     1       0.3621870374E-02       4    6    1         0.1935961201E+00      0.2790196223E+00
          0                 5           2             4    6     1       0.1306218377E-02       4    6    1         0.6982243995E-01      0.1003878426E+00
          0                 6           2             4    6     1       0.4710367538E-03       4    6    1         0.2518084817E-01      0.3611966370E-01
          0                 7           2             4    6     1       0.1698447740E-03       4    6    1         0.9080289669E-02      0.1299607969E-01
          0                 8           1             4    6     1       0.6123646840E-04       4    6    1         0.3274071860E-02      0.4676127578E-02

    ------------------------------------------------
       NWT REQUIRED            8 OUTER ITERATIONS 
       AND A TOTAL OF         15 INNER ITERATIONS.
    ------------------------------------------------

 NO OUTPUT CONTROL FOR STRESS PERIOD   48   TIME STEP    5
 
 SOLVING FOR HEAD 
                                                   Max.-Head-Change                         Max.-Flux-Residual
  Residual-Control   Outer-Iter.   Inner-Iter.     Column Row Layer    Maximum-Head-Change  Column Row Layer    Maximum-Flux-Residual          L2-NORM 
          0                 1           2             4    7     1       0.8788549180E-01       4    7    1         0.4737528624E+01      0.8599363862E+01
          0                 2           2             4    7     1       0.3137429966E-01       4    7    1         0.1690313374E+01      0.2787625674E+01
          0                 3           2             4    7     1       0.1120485577E-01       4    7    1         0.6034861489E+00      0.9879370858E+00
          0                 4           2             4    7     1       0.4003189021E-02       4    7    1         0.2155426970E+00      0.3540523673E+00
          0                 5           2             4    7     1       0.1430757783E-02       4    7    1         0.7701480990E-01      0.1269508677E+00
          0                 6           2             4    7     1       0.5115397189E-03       4    7    1         0.2752756888E-01      0.4553770723E-01
          0                 7           2             4    7     1       0.1829528222E-03       4    7    1         0.9842709565E-02      0.1633983815E-01
          0                 8           1             4    7     1       0.6545440207E-04       4    7    1         0.3520514570E-02      0.5864790217E-02

    ------------------------------------------------
       NWT REQUIRED            8 OUTER ITERATIONS 
       AND A TOTAL OF         15 INNER ITERATIONS.
    ------------------------------------------------

 NO OUTPUT CONTROL FOR STRESS PERIOD   48   TIME STEP    6
 
 SOLVING FOR HEAD 
                                                   Max.-Head-Change                         Max.-Flux-Residual
  Residual-Control   Outer-Iter.   Inner-Iter.     Column Row Layer    Maximum-Head-Change  Column Row Layer    Maximum-Flux-Residual          L2-NORM 
          0                 1           2             4    7     1       0.8424678535E-01       4    7    1         0.4446693945E+01      0.1018805206E+02
          0                 2           2             4    7     1       0.3081909191E-01       4    7    1         0.1629803837E+01      0.3473759355E+01
          0                 3           2             4    7     1       0.1127930495E-01       4    7    1         0.5959273525E+00      0.1253958686E+01
          0                 4           2             4    7     1       0.4129664543E-02       4    7    1         0.2181431236E+00      0.4565303212E+00
          0                 5           2             4    7     1       0.1512493625E-02       4    7    1         0.7987383188E-01      0.1662670878E+00
          0                 6           2             4    7     1       0.5541121015E-03       4    7    1         0.2925595419E-01      0.6058083356E-01
          0                 7           2             4    7     1       0.2030524351E-03       4    7    1         0.1071875254E-01      0.2208109479E-01
          0                 8           1             4    7     1       0.7442321575E-04       4    7    1         0.3928048267E-02      0.8050977457E-02

    ------------------------------------------------
       NWT REQUIRED            8 OUTER ITERATIONS 
       AND A TOTAL OF         15 INNER ITERATIONS.
    ------------------------------------------------

 NO OUTPUT CONTROL FOR STRESS PERIOD   48   TIME STEP    7
 
 SOLVING FOR HEAD 
                                                   Max.-Head-Change                         Max.-Flux-Residual
  Residual-Control   Outer-Iter.   Inner-Iter.     Column Row Layer    Maximum-Head-Change  Column Row Layer    Maximum-Flux-Residual          L2-NORM 
          0                 1           2             5    7     1       0.8683094188E-01       5    7    1         0.4568669659E+01      0.1131384034E+02
          0                 2           2             4    8     1       0.3168815628E-01       4    8    1         0.1677454150E+01      0.3908718391E+01
          0                 3           2             4    8     1       0.1159029084E-01       4    8    1         0.6125955853E+00      0.1416531797E+01
          0                 4           2             4    8     1       0.4239191591E-02       4    8    1         0.2241223210E+00      0.5170226154E+00
          0                 5           2             4    7     1       0.1565819967E-02       4    7    1         0.8199084964E-01      0.1887175291E+00
          0                 6           2             4    7     1       0.5794494082E-03       4    7    1         0.3035735171E-01      0.6889714107E-01
          0                 7           2             4    7     1       0.2142978446E-03       4    7    1         0.1123251380E-01      0.2515667301E-01
          0                 8           1             4    7     1       0.7920720110E-04       4    7    1         0.4153576879E-02      0.9186806040E-02

    ------------------------------------------------
       NWT REQUIRED            8 OUTER ITERATIONS 
       AND A TOTAL OF         15 INNER ITERATIONS.
    ------------------------------------------------

 NO OUTPUT CONTROL FOR STRESS PERIOD   48   TIME STEP    8
 
 SOLVING FOR HEAD 
                                                   Max.-Head-Change                         Max.-Flux-Residual
  Residual-Control   Outer-Iter.   Inner-Iter.     Column Row Layer    Maximum-Head-Change  Column Row Layer    Maximum-Flux-Residual          L2-NORM 
          0                 1           2             4    8     1       0.8444401315E-01       5    7    1         0.4445161295E+01      0.1109941344E+02
          0                 2           2             4    8     1       0.3088607875E-01       4    8    1         0.1635182822E+01      0.3809744140E+01
          0                 3           2             4    8     1       0.1129660922E-01       4    8    1         0.5970754451E+00      0.1379275675E+01
          0                 4           2             4    7     1       0.4181987446E-02       4    7    1         0.2189870843E+00      0.5033760198E+00
          0                 5           2             4    7     1       0.1547552690E-02       4    7    1         0.8107785059E-01      0.1837173768E+00
          0                 6           2             4    7     1       0.5723138777E-03       4    7    1         0.2999884129E-01      0.6706474280E-01
          0                 7           2             4    7     1       0.2115266837E-03       4    7    1         0.1109266085E-01      0.2448495958E-01
          0                 8           1             4    7     1       0.7813632316E-04       4    7    1         0.4099325610E-02      0.8940508171E-02

    ------------------------------------------------
       NWT REQUIRED            8 OUTER ITERATIONS 
       AND A TOTAL OF         15 INNER ITERATIONS.
    ------------------------------------------------

 NO OUTPUT CONTROL FOR STRESS PERIOD   48   TIME STEP    9
 
 SOLVING FOR HEAD 
                                                   Max.-Head-Change                         Max.-Flux-Residual
  Residual-Control   Outer-Iter.   Inner-Iter.     Column Row Layer    Maximum-Head-Change  Column Row Layer    Maximum-Flux-Residual          L2-NORM 
          0                 1           2             4    8     1       0.8233360377E-01       4    8    1         0.4329140801E+01      0.1090001647E+02
          0                 2           2             4    7     1       0.3015702665E-01       4    8    1         0.1594451493E+01      0.3712434501E+01
          0                 3           2             4    7     1       0.1116691554E-01       4    7    1         0.5846920111E+00      0.1343073154E+01
          0                 4           2             4    7     1       0.4132251452E-02       4    7    1         0.2164990883E+00      0.4902468854E+00
          0                 5           2             4    7     1       0.1528150469E-02       4    7    1         0.8010196332E-01      0.1789536860E+00
          0                 6           2             4    7     1       0.5647904588E-03       4    7    1         0.2961867310E-01      0.6533523840E-01
          0                 7           2             4    7     1       0.2086245222E-03       4    7    1         0.1094542238E-01      0.2385665248E-01
          0                 8           1             4    7     1       0.7702187112E-04       4    7    1         0.4042587178E-02      0.8712120969E-02

    ------------------------------------------------
       NWT REQUIRED            8 OUTER ITERATIONS 
       AND A TOTAL OF         15 INNER ITERATIONS.
    ------------------------------------------------

 NO OUTPUT CONTROL FOR STRESS PERIOD   48   TIME STEP   10
 
 SOLVING FOR HEAD 
                                                   Max.-Head-Change                         Max.-Flux-Residual
  Residual-Control   Outer-Iter.   Inner-Iter.     Column Row Layer    Maximum-Head-Change  Column Row Layer    Maximum-Flux-Residual          L2-NORM 
          0                 1           2             4    7     1       0.8051555084E-01       4    8    1         0.4220895068E+01      0.1071353988E+02
          0                 2           2             4    7     1       0.2981450450E-01       4    7    1         0.1562116310E+01      0.3618828149E+01
          0                 3           2             4    7     1       0.1103270407E-01       4    7    1         0.5779631473E+00      0.1307976877E+01
          0                 4           2             4    7     1       0.4080001429E-02       4    7    1         0.2138670857E+00      0.4774140012E+00
          0                 5           2             4    7     1       0.1507920613E-02       4    7    1         0.7907857185E-01      0.1742605626E+00
          0                 6           2             4    7     1       0.5569950604E-03       4    7    1         0.2922287583E-01      0.6361840439E-01
          0                 7           2             4    7     1       0.2056330128E-03       4    7    1         0.1079304967E-01      0.2322838456E-01
          0                 8           1             4    7     1       0.7587802128E-04       4    7    1         0.3984162055E-02      0.8482137990E-02

    ------------------------------------------------
       NWT REQUIRED            8 OUTER ITERATIONS 
       AND A TOTAL OF         15 INNER ITERATIONS.
    ------------------------------------------------

 NO OUTPUT CONTROL FOR STRESS PERIOD   48   TIME STEP   11
 
 SOLVING FOR HEAD 
                                                   Max.-Head-Change                         Max.-Flux-Residual
  Residual-Control   Outer-Iter.   Inner-Iter.     Column Row Layer    Maximum-Head-Change  Column Row Layer    Maximum-Flux-Residual          L2-NORM 
          0                 1           2             4    7     1       0.7958900748E-01       4    7    1         0.4158414728E+01      0.1053863478E+02
          0                 2           2             4    7     1       0.2945248711E-01       4    7    1         0.1543949625E+01      0.3531091001E+01
          0                 3           2             4    7     1       0.1089214097E-01       4    7    1         0.5708661155E+00      0.1275197476E+01
          0                 4           2             4    7     1       0.4025717646E-02       4    7    1         0.2111155022E+00      0.4655075938E+00
          0                 5           2             4    7     1       0.1487054924E-02       4    7    1         0.7801705965E-01      0.1699348906E+00
          0                 6           2             4    7     1       0.5490075701E-03       4    7    1         0.2881523407E-01      0.6204608528E-01
          0                 7           2             4    7     1       0.2025864420E-03       4    7    1         0.1063713140E-01      0.2265656705E-01
          0                 8           1             4    7     1       0.7471975041E-04       4    7    1         0.3924735721E-02      0.8274080948E-02

    ------------------------------------------------
       NWT REQUIRED            8 OUTER ITERATIONS 
       AND A TOTAL OF         15 INNER ITERATIONS.
    ------------------------------------------------

 NO OUTPUT CONTROL FOR STRESS PERIOD   48   TIME STEP   12
 
 SOLVING FOR HEAD 
                                                   Max.-Head-Change                         Max.-Flux-Residual
  Residual-Control   Outer-Iter.   Inner-Iter.     Column Row Layer    Maximum-Head-Change  Column Row Layer    Maximum-Flux-Residual          L2-NORM 
          0                 1           2             4    7     1       0.7861239574E-01       4    7    1         0.4109058125E+01      0.1037527698E+02
          0                 2           2             4    7     1       0.2907412914E-01       4    7    1         0.1524837091E+01      0.3446949269E+01
          0                 3           2             4    7     1       0.1074629853E-01       4    7    1         0.5634612897E+00      0.1243747984E+01
          0                 4           2             4    7     1       0.3969749067E-02       4    7    1         0.2082647046E+00      0.4540761036E+00
          0                 5           2             4    7     1       0.1465659840E-02       4    7    1         0.7692398284E-01      0.1657793313E+00
          0                 6           2             4    7     1       0.5408570580E-03       4    7    1         0.2839771305E-01      0.6053477815E-01
          0                 7           2             4    7     1       0.1994910271E-03       4    7    1         0.1047818680E-01      0.2210666436E-01
          0                 8           1             4    7     1       0.7354741017E-04       4    7    1         0.3864409253E-02      0.8073906258E-02

    ------------------------------------------------
       NWT REQUIRED            8 OUTER ITERATIONS 
       AND A TOTAL OF         15 INNER ITERATIONS.
    ------------------------------------------------

 NO OUTPUT CONTROL FOR STRESS PERIOD   48   TIME STEP   13
 
 SOLVING FOR HEAD 
                                                   Max.-Head-Change                         Max.-Flux-Residual
  Residual-Control   Outer-Iter.   Inner-Iter.     Column Row Layer    Maximum-Head-Change  Column Row Layer    Maximum-Flux-Residual          L2-NORM 
          0                 1           2             4    7     1       0.7759435711E-01       4    7    1         0.4057305867E+01      0.1022225286E+02
          0                 2           2             4    7     1       0.2868245127E-01       4    7    1         0.1504944085E+01      0.3366808159E+01
          0                 3           2             4    7     1       0.1059623690E-01       4    7    1         0.5558065117E+00      0.1213740246E+01
          0                 4           2             4    7     1       0.3912469442E-02       4    7    1         0.2053350133E+00      0.4431605657E+00
          0                 5           2             4    7     1       0.1443867701E-02       4    7    1         0.7580651248E-01      0.1618088817E+00
          0                 6           2             4    7     1       0.5325905802E-03       4    7    1         0.2797285441E-01      0.5908997179E-01
          0                 7           2             4    7     1       0.1963635676E-03       4    7    1         0.1031712048E-01      0.2158068489E-01
          0                 8           1             4    7     1       0.7236702098E-04       4    7    1         0.3803505911E-02      0.7882348803E-02

    ------------------------------------------------
       NWT REQUIRED            8 OUTER ITERATIONS 
       AND A TOTAL OF         15 INNER ITERATIONS.
    ------------------------------------------------

 NO OUTPUT CONTROL FOR STRESS PERIOD   48   TIME STEP   14
 
 SOLVING FOR HEAD 
                                                   Max.-Head-Change                         Max.-Flux-Residual
  Residual-Control   Outer-Iter.   Inner-Iter.     Column Row Layer    Maximum-Head-Change  Column Row Layer    Maximum-Flux-Residual          L2-NORM 
          0                 1           2             4    7     1       0.7653269508E-01       4    7    1         0.4003567190E+01      0.9736242103E+01
          0                 2           2             4    7     1       0.2826711283E-01       4    7    1         0.1484175500E+01      0.3119607634E+01
          0                 3           2             4    7     1       0.1043227462E-01       4    7    1         0.5476566357E+00      0.1113884880E+01
          0                 4           2             4    7     1       0.3847264452E-02       4    7    1         0.2021125425E+00      0.4041673180E+00
          0                 5           2             4    7     1       0.1417797257E-02       4    7    1         0.7452316640E-01      0.1467761590E+00
          0                 6           2             4    7     1       0.5221316163E-03       4    7    1         0.2745923508E-01      0.5334095216E-01
          0                 7           2             4    7     1       0.1921608053E-03       4    7    1         0.1011094286E-01      0.1939430144E-01
          0                 8           1             4    7     1       0.7067793844E-04       4    7    1         0.3720635641E-02      0.7054170807E-02

    ------------------------------------------------
       NWT REQUIRED            8 OUTER ITERATIONS 
       AND A TOTAL OF         15 INNER ITERATIONS.
    ------------------------------------------------

 NO OUTPUT CONTROL FOR STRESS PERIOD   48   TIME STEP   15
 
 SOLVING FOR HEAD 
                                                   Max.-Head-Change                         Max.-Flux-Residual
  Residual-Control   Outer-Iter.   Inner-Iter.     Column Row Layer    Maximum-Head-Change  Column Row Layer    Maximum-Flux-Residual          L2-NORM 
          0                 1           2             4    7     1       0.7539777813E-01       4    7    1         0.3946654275E+01      0.9372140002E+01
          0                 2           2             4    7     1       0.2782051168E-01       4    7    1         0.1461920421E+01      0.2966346745E+01
          0                 3           2             4    7     1       0.1025651113E-01       4    7    1         0.5388855752E+00      0.1061130905E+01
          0                 4           2             4    7     1       0.3778254691E-02       4    7    1         0.1986616032E+00      0.3859765590E+00
          0                 5           2             4    7     1       0.1390803745E-02       4    7    1         0.7316897955E-01      0.1404206759E+00
          0                 6           2             4    7     1       0.5116198158E-03       4    7    1         0.2692997046E-01      0.5109679497E-01
          0                 7           2             4    7     1       0.1880864625E-03       4    7    1         0.9905028727E-02      0.1859571186E-01
          0                 8           1             4    7     1       0.6910609345E-04       4    7    1         0.3640901221E-02      0.6768388611E-02

    ------------------------------------------------
       NWT REQUIRED            8 OUTER ITERATIONS 
       AND A TOTAL OF         15 INNER ITERATIONS.
    ------------------------------------------------

 NO OUTPUT CONTROL FOR STRESS PERIOD   48   TIME STEP   16
 
 SOLVING FOR HEAD 
                                                   Max.-Head-Change                         Max.-Flux-Residual
  Residual-Control   Outer-Iter.   Inner-Iter.     Column Row Layer    Maximum-Head-Change  Column Row Layer    Maximum-Flux-Residual          L2-NORM 
          0                 1           2             4    7     1       0.7419229455E-01       4    7    1         0.3885819542E+01      0.9223939616E+01
          0                 2           2             4    7     1       0.2735468911E-01       4    7    1         0.1438319961E+01      0.2893704636E+01
          0                 3           2             4    7     1       0.1007791153E-01       4    7    1         0.5297757501E+00      0.1033984427E+01
          0                 4           2             4    7     1       0.3710210423E-02       4    7    1         0.1951747121E+00      0.3761095642E+00
          0                 5           2             4    7     1       0.1365014231E-02       4    7    1         0.7184216258E-01      0.1368378482E+00
          0                 6           2             4    7     1       0.5018875994E-03       4    7    1         0.2642761597E-01      0.4979607817E-01
          0                 7           2             4    7     1       0.1844272123E-03       4    7    1         0.9715619944E-02      0.1812347273E-01
          0                 8           1             4    7     1       0.6773452088E-04       4    7    1         0.3569737415E-02      0.6596909788E-02

    ------------------------------------------------
       NWT REQUIRED            8 OUTER ITERATIONS 
       AND A TOTAL OF         15 INNER ITERATIONS.
    ------------------------------------------------

 NO OUTPUT CONTROL FOR STRESS PERIOD   48   TIME STEP   17
 
 SOLVING FOR HEAD 
                                                   Max.-Head-Change                         Max.-Flux-Residual
  Residual-Control   Outer-Iter.   Inner-Iter.     Column Row Layer    Maximum-Head-Change  Column Row Layer    Maximum-Flux-Residual          L2-NORM 
          0                 1           2             4    7     1       0.7294098428E-01       4    7    1         0.3822080339E+01      0.9088728340E+01
          0                 2           2             4    7     1       0.2687609856E-01       4    7    1         0.1413881617E+01      0.2825895348E+01
          0                 3           2             4    7     1       0.9895968495E-02       4    7    1         0.5204353069E+00      0.1008511802E+01
          0                 4           2             4    7     1       0.3641385073E-02       4    7    1         0.1916285593E+00      0.3668224337E+00
          0                 5           2             4    7     1       0.1339086515E-02       4    7    1         0.7050203866E-01      0.1334580825E+00
          0                 6           2             4    7     1       0.4921541727E-03       4    7    1         0.2592318916E-01      0.4856702640E-01
          0                 7           2             4    7     1       0.1807840549E-03       4    7    1         0.9526388583E-02      0.1767667810E-01
          0                 8           1             4    7     1       0.6637438639E-04       4    7    1         0.3498952149E-02      0.6434507621E-02

    ------------------------------------------------
       NWT REQUIRED            8 OUTER ITERATIONS 
       AND A TOTAL OF         15 INNER ITERATIONS.
    ------------------------------------------------

 NO OUTPUT CONTROL FOR STRESS PERIOD   48   TIME STEP   18
 
 SOLVING FOR HEAD 
                                                   Max.-Head-Change                         Max.-Flux-Residual
  Residual-Control   Outer-Iter.   Inner-Iter.     Column Row Layer    Maximum-Head-Change  Column Row Layer    Maximum-Flux-Residual          L2-NORM 
          0                 1           2             4    7     1       0.7165885335E-01       4    7    1         0.3756304806E+01      0.8964345423E+01
          0                 2           2             4    7     1       0.2638961781E-01       4    7    1         0.1388888059E+01      0.2762320374E+01
          0                 3           2             4    7     1       0.9713019613E-02       4    7    1         0.5109560853E+00      0.9851897727E+00
          0                 4           2             4    7     1       0.3572982584E-02       4    7    1         0.1880715216E+00      0.3584254291E+00
          0                 5           2             4    7     1       0.1313619164E-02       4    7    1         0.6917341586E-01      0.1304451068E+00
          0                 6           2             4    7     1       0.4827067496E-03       4    7    1         0.2542894824E-01      0.4748794542E-01
          0                 7           2             4    7     1       0.1772905530E-03       4    7    1         0.9343181148E-02      0.1729068771E-01
          0                 8           1             4    7     1       0.6508616508E-04       4    7    1         0.3431249557E-02      0.6296553408E-02

    ------------------------------------------------
       NWT REQUIRED            8 OUTER ITERATIONS 
       AND A TOTAL OF         15 INNER ITERATIONS.
    ------------------------------------------------

 NO OUTPUT CONTROL FOR STRESS PERIOD   48   TIME STEP   19
 
 SOLVING FOR HEAD 
                                                   Max.-Head-Change                         Max.-Flux-Residual
  Residual-Control   Outer-Iter.   Inner-Iter.     Column Row Layer    Maximum-Head-Change  Column Row Layer    Maximum-Flux-Residual          L2-NORM 
          0                 1           2             4    7     1       0.6981836780E-01       4    7    1         0.3689288384E+01      0.8320595634E+01
          0                 2           2             4    7     1       0.2544981012E-01       4    7    1         0.1350264607E+01      0.2451606050E+01
          0                 3           2             4    7     1       0.9272138142E-02       4    7    1         0.4916765072E+00      0.8639785936E+00
          0                 4           2             4    7     1       0.3376617447E-02       4    7    1         0.1791431556E+00      0.3124903744E+00
          0                 5           2             4    7     1       0.1229173247E-02       4    7    1         0.6523098859E-01      0.1131257051E+00
          0                 6           2             4    7     1       0.4472946298E-03       4    7    1         0.2374381004E-01      0.4097761414E-01
          0                 7           2             4    7     1       0.1627201317E-03       4    7    1         0.8639713775E-02      0.1484894678E-01
          0                 8           1             4    7     1       0.5917952042E-04       4    7    1         0.3142817109E-02      0.5382312170E-02

    ------------------------------------------------
       NWT REQUIRED            8 OUTER ITERATIONS 
       AND A TOTAL OF         15 INNER ITERATIONS.
    ------------------------------------------------

 NO OUTPUT CONTROL FOR STRESS PERIOD   48   TIME STEP   20
 
 SOLVING FOR HEAD 
                                                   Max.-Head-Change                         Max.-Flux-Residual
  Residual-Control   Outer-Iter.   Inner-Iter.     Column Row Layer    Maximum-Head-Change  Column Row Layer    Maximum-Flux-Residual          L2-NORM 
          0                 1           2             4    7     1       0.6692808265E-01       4    7    1         0.3573432510E+01      0.7614545879E+01
          0                 2           2             4    7     1       0.2408170212E-01       4    7    1         0.1290679572E+01      0.2098111830E+01
          0                 3           2             4    7     1       0.8664738908E-02       4    7    1         0.4639473153E+00      0.7257227151E+00
          0                 4           2             4    7     1       0.3117539754E-02       4    7    1         0.1669595499E+00      0.2600096605E+00
          0                 5           2             4    7     1       0.1121649437E-02       4    7    1         0.6006987596E-01      0.9331771788E-01
          0                 6           2             4    7     1       0.4035457872E-03       4    7    1         0.2161227625E-01      0.3352704272E-01
          0                 7           2             4    7     1       0.1451850100E-03       4    7    1         0.7775604208E-02      0.1205415978E-01
          0                 8           1             4    7     1       0.5223327057E-04       4    7    1         0.2797446626E-02      0.4336286390E-02

    ------------------------------------------------
       NWT REQUIRED            8 OUTER ITERATIONS 
       AND A TOTAL OF         15 INNER ITERATIONS.
    ------------------------------------------------

 NO OUTPUT CONTROL FOR STRESS PERIOD   48   TIME STEP   21
 
 SOLVING FOR HEAD 
                                                   Max.-Head-Change                         Max.-Flux-Residual
  Residual-Control   Outer-Iter.   Inner-Iter.     Column Row Layer    Maximum-Head-Change  Column Row Layer    Maximum-Flux-Residual          L2-NORM 
          0                 1           2             4    7     1       0.6370817399E-01       4    7    1         0.3400868716E+01      0.7439995468E+01
          0                 2           2             4    7     1       0.2302410204E-01       4    7    1         0.1232501875E+01      0.2020508701E+01
          0                 3           2             4    7     1       0.7549900029E-02       4    7    1         0.4029937471E+00      0.6723082337E+00
          0                 4           2             4    6     1       0.2660014113E-02       4    6    1         0.1415780908E+00      0.2299829243E+00
          0                 5           2             4    6     1       0.9629188745E-03       4    6    1         0.5134049355E-01      0.7935271279E-01
          0                 6           2             4    6     1       0.3478651528E-03       4    6    1         0.1857593479E-01      0.2756864045E-01
          0                 7           2             4    6     1       0.1254550124E-03       4    6    1         0.6707913171E-02      0.9631189579E-02
          0                 8           1             4    6     1       0.4517896225E-04       4    6    1         0.2418295456E-02      0.3379849318E-02

    ------------------------------------------------
       NWT REQUIRED            8 OUTER ITERATIONS 
       AND A TOTAL OF         15 INNER ITERATIONS.
    ------------------------------------------------

 NO OUTPUT CONTROL FOR STRESS PERIOD   48   TIME STEP   22
 
 SOLVING FOR HEAD 
                                                   Max.-Head-Change                         Max.-Flux-Residual
  Residual-Control   Outer-Iter.   Inner-Iter.     Column Row Layer    Maximum-Head-Change  Column Row Layer    Maximum-Flux-Residual          L2-NORM 
          0                 1           2             4    6     1       0.5301331988E-01       4    6    1         0.2826620686E+01      0.6232286529E+01
          0                 2           2             4    6     1       0.1884027980E-01       4    6    1         0.1022727958E+01      0.1350348788E+01
          0                 3           2             4    6     1       0.6704765555E-02       4    6    1         0.3621637343E+00      0.4288394419E+00
          0                 4           2             4    6     1       0.2382421353E-02       4    6    1         0.1288597630E+00      0.1481659051E+00
          0                 5           2             4    6     1       0.8460438860E-03       4    6    1         0.4577714648E-01      0.5150499173E-01
          0                 6           2             4    6     1       0.3002890194E-03       4    6    1         0.1625445134E-01      0.1796692647E-01
          0                 7           1             4    6     1       0.1065336073E-03       4    6    1         0.5768592447E-02      0.6284456566E-02
          0                 8           1             4    6     1       0.3777969791E-04       4    6    1         0.2046323644E-02      0.2202987200E-02

    ------------------------------------------------
       NWT REQUIRED            8 OUTER ITERATIONS 
       AND A TOTAL OF         14 INNER ITERATIONS.
    ------------------------------------------------

 NO OUTPUT CONTROL FOR STRESS PERIOD   48   TIME STEP   23
 
 SOLVING FOR HEAD 
                                                   Max.-Head-Change                         Max.-Flux-Residual
  Residual-Control   Outer-Iter.   Inner-Iter.     Column Row Layer    Maximum-Head-Change  Column Row Layer    Maximum-Flux-Residual          L2-NORM 
          0                 1           2             5    8     1       0.5672158128E-01       5    8    1         0.3063265085E+01      0.6656184730E+01
          0                 2           2             5    8     1       0.1982290075E-01       5    8    1         0.1090104100E+01      0.1615303712E+01
          0                 3           2             5    8     1       0.6924130841E-02       5    8    1         0.3791251909E+00      0.5347269253E+00
          0                 4           2             5    8     1       0.2417553124E-02       5    8    1         0.1325258714E+00      0.1869320174E+00
          0                 5           2             5    8     1       0.8437744452E-03       5    8    1         0.4626245703E-01      0.6546755892E-01
          0                 6           2             5    8     1       0.2944012658E-03       5    8    1         0.1614543529E-01      0.2294354950E-01
          0                 7           1             5    8     1       0.1026918582E-03       5    8    1         0.5632913946E-02      0.8044271412E-02
          0                 8           1             5    8     1       0.3581233457E-04       5    8    1         0.1964737110E-02      0.2821511115E-02

    ------------------------------------------------
       NWT REQUIRED            8 OUTER ITERATIONS 
       AND A TOTAL OF         14 INNER ITERATIONS.
    ------------------------------------------------

 NO OUTPUT CONTROL FOR STRESS PERIOD   48   TIME STEP   24
 
 SOLVING FOR HEAD 
                                                   Max.-Head-Change                         Max.-Flux-Residual
  Residual-Control   Outer-Iter.   Inner-Iter.     Column Row Layer    Maximum-Head-Change  Column Row Layer    Maximum-Flux-Residual          L2-NORM 
          0                 1           2             5    8     1       0.6590977315E-01       5    8    1         0.3568154500E+01      0.6831182964E+01
          0                 2           2             5    8     1       0.2301300294E-01       5    8    1         0.1265815972E+01      0.1717389936E+01
          0                 3           2             5    8     1       0.8032070996E-02       5    8    1         0.4400918880E+00      0.5721236797E+00
          0                 4           2             5    8     1       0.2802444735E-02       5    8    1         0.1537036142E+00      0.1998775169E+00
          0                 5           2             5    8     1       0.9775100077E-03       5    8    1         0.5361979440E-01      0.6992254824E-01
          0                 6           2             5    8     1       0.3408765133E-03       5    8    1         0.1870194922E-01      0.2447217367E-01
          0                 7           1             5    8     1       0.1188445870E-03       5    8    1         0.6521371831E-02      0.8567377969E-02
          0                 8           1             5    8     1       0.4142675712E-04       5    8    1         0.2273532846E-02      0.3000074038E-02

    ------------------------------------------------
       NWT REQUIRED            8 OUTER ITERATIONS 
       AND A TOTAL OF         14 INNER ITERATIONS.
    ------------------------------------------------

 NO OUTPUT CONTROL FOR STRESS PERIOD   48   TIME STEP   25
 
 SOLVING FOR HEAD 
                                                   Max.-Head-Change                         Max.-Flux-Residual
  Residual-Control   Outer-Iter.   Inner-Iter.     Column Row Layer    Maximum-Head-Change  Column Row Layer    Maximum-Flux-Residual          L2-NORM 
          0                 1           2             5    8     1       0.6102550897E-01       5    8    1         0.3295316480E+01      0.6643960717E+01
          0                 2           2             5    8     1       0.2133651896E-01       5    8    1         0.1172856342E+01      0.1633193871E+01
          0                 3           2             5    8     1       0.7455853479E-02       5    8    1         0.4081197087E+00      0.5412554351E+00
          0                 4           2             5    8     1       0.2604150679E-02       5    8    1         0.1427151743E+00      0.1890084107E+00
          0                 5           2             5    8     1       0.9091941160E-03       5    8    1         0.4983713999E-01      0.6610403093E-01
          0                 6           2             5    8     1       0.3173163089E-03       5    8    1         0.1739843906E-01      0.2313220754E-01
          0                 7           1             5    8     1       0.1107117636E-03       5    8    1         0.6071726568E-02      0.8097561537E-02
          0                 8           1             5    8     1       0.3861698364E-04       5    8    1         0.2118286544E-02      0.2835455838E-02

    ------------------------------------------------
       NWT REQUIRED            8 OUTER ITERATIONS 
       AND A TOTAL OF         14 INNER ITERATIONS.
    ------------------------------------------------

 NO OUTPUT CONTROL FOR STRESS PERIOD   48   TIME STEP   26
 
 SOLVING FOR HEAD 
                                                   Max.-Head-Change                         Max.-Flux-Residual
  Residual-Control   Outer-Iter.   Inner-Iter.     Column Row Layer    Maximum-Head-Change  Column Row Layer    Maximum-Flux-Residual          L2-NORM 
          0                 1           2             5    8     1       0.5668770845E-01       5    8    1         0.3053214169E+01      0.6084362652E+01
          0                 2           2             5    8     1       0.1984658944E-01       5    8    1         0.1090275982E+01      0.1326928065E+01
          0                 3           2             5    8     1       0.6943236393E-02       5    8    1         0.3797014270E+00      0.4234794027E+00
          0                 4           2             5    8     1       0.2427485477E-02       5    8    1         0.1329371434E+00      0.1460942189E+00
          0                 5           2             5    8     1       0.8482082302E-03       5    8    1         0.4646589029E-01      0.5056651334E-01
          0                 6           1             5    8     1       0.2962294943E-03       5    8    1         0.1623423602E-01      0.1752102688E-01
          0                 7           1             5    8     1       0.1034092390E-03       5    8    1         0.5669039642E-02      0.6075322071E-02
          0                 8           1             5    8     1       0.3608425755E-04       5    8    1         0.1978784402E-02      0.2107839525E-02

    ------------------------------------------------
       NWT REQUIRED            8 OUTER ITERATIONS 
       AND A TOTAL OF         13 INNER ITERATIONS.
    ------------------------------------------------

 NO OUTPUT CONTROL FOR STRESS PERIOD   48   TIME STEP   27
 
 SOLVING FOR HEAD 
                                                   Max.-Head-Change                         Max.-Flux-Residual
  Residual-Control   Outer-Iter.   Inner-Iter.     Column Row Layer    Maximum-Head-Change  Column Row Layer    Maximum-Flux-Residual          L2-NORM 
          0                 1           2             5    8     1       0.5282879114E-01       5    8    1         0.2838087545E+01      0.5956789088E+01
          0                 2           2             5    8     1       0.1852017135E-01       5    8    1         0.1016787254E+01      0.1272338463E+01
          0                 3           2             5    8     1       0.6486659732E-02       5    8    1         0.3543986456E+00      0.4027045530E+00
          0                 4           2             5    8     1       0.2270122770E-02       5    8    1         0.1242272374E+00      0.1385753212E+00
          0                 5           2             5    8     1       0.7939100376E-03       5    8    1         0.4346300492E-01      0.4787815884E-01
          0                 6           1             5    8     1       0.2774747824E-03       5    8    1         0.1519783178E-01      0.1656673902E-01
          0                 7           1             5    8     1       0.9692546809E-04       5    8    1         0.5310983659E-02      0.5738360654E-02

    ------------------------------------------------
       NWT REQUIRED            7 OUTER ITERATIONS 
       AND A TOTAL OF         12 INNER ITERATIONS.
    ------------------------------------------------

 NO OUTPUT CONTROL FOR STRESS PERIOD   48   TIME STEP   28
 
 SOLVING FOR HEAD 
                                                   Max.-Head-Change                         Max.-Flux-Residual
  Residual-Control   Outer-Iter.   Inner-Iter.     Column Row Layer    Maximum-Head-Change  Column Row Layer    Maximum-Flux-Residual          L2-NORM 
          0                 1           2             4    8     1       0.6806559952E-01       4    8    1         0.3623283676E+01      0.6774318839E+01
          0                 2           2             4    8     1       0.2443883433E-01       4    8    1         0.1313385369E+01      0.1766182453E+01
          0                 3           2             4    8     1       0.8771923704E-02       4    8    1         0.4703967961E+00      0.6034315960E+00
          0                 4           2             4    8     1       0.3147644273E-02       4    8    1         0.1689016986E+00      0.2150326550E+00
          0                 5           2             4    8     1       0.1129183891E-02       4    8    1         0.6060072285E-01      0.7673932237E-01
          0                 6           2             4    8     1       0.4049884512E-03       4    8    1         0.2173879704E-01      0.2740149405E-01
          0                 7           2             4    8     1       0.1452208696E-03       4    8    1         0.7796356639E-02      0.9787574641E-02
          0                 8           1             4    8     1       0.5206337952E-04       4    8    1         0.2795494292E-02      0.3496928518E-02

    ------------------------------------------------
       NWT REQUIRED            8 OUTER ITERATIONS 
       AND A TOTAL OF         15 INNER ITERATIONS.
    ------------------------------------------------

 NO OUTPUT CONTROL FOR STRESS PERIOD   48   TIME STEP   29
 
 SOLVING FOR HEAD 
                                                   Max.-Head-Change                         Max.-Flux-Residual
  Residual-Control   Outer-Iter.   Inner-Iter.     Column Row Layer    Maximum-Head-Change  Column Row Layer    Maximum-Flux-Residual          L2-NORM 
          0                 1           2             5    7     1       0.6634141758E-01       5    7    1         0.3576516278E+01      0.7490540783E+01
          0                 2           2             4    8     1       0.2372566371E-01       5    7    1         0.1275615152E+01      0.2123993854E+01
          0                 3           2             4    8     1       0.8527727459E-02       4    8    1         0.4567624463E+00      0.7375182414E+00
          0                 4           2             4    8     1       0.3065420956E-02       4    8    1         0.1642531243E+00      0.2637757672E+00
          0                 5           2             4    8     1       0.1101996894E-02       4    8    1         0.5904136939E-01      0.9440647750E-01
          0                 6           2             4    8     1       0.3961879999E-03       4    8    1         0.2122542618E-01      0.3380030873E-01
          0                 7           2             4    8     1       0.1424459824E-03       4    8    1         0.7631038843E-02      0.1210434743E-01
          0                 8           1             4    8     1       0.5121819553E-04       4    8    1         0.2743712162E-02      0.4335676334E-02

    ------------------------------------------------
       NWT REQUIRED            8 OUTER ITERATIONS 
       AND A TOTAL OF         15 INNER ITERATIONS.
    ------------------------------------------------

 NO OUTPUT CONTROL FOR STRESS PERIOD   48   TIME STEP   30



 STREAM LISTING     PERIOD     48   STEP       30

 LAYER ROW COL. STREAM  RCH.  FLOW INTO     FLOW TO   FLOW OUT OF   OVRLND.     DIRECT     STREAM       STREAM     STREAM     STREAM   STREAMBED  STREAMBED
                SEG.NO.  NO.  STRM. RCH.    AQUIFER    STRM. RCH.    RUNOFF     PRECIP       ET          HEAD       DEPTH      WIDTH   CONDCTNC.   GRADIENT

   1    1    1     1     1    7.8748E+00  1.2804E-01   7.7467E+00  0.000E+00  0.000E+00  0.000E+00  1.09388E+03  8.295E-01  7.430E+00  3.344E-02  1.276E+00
   1    2    2     1     2    7.7467E+00  1.9662E-01   7.5501E+00  0.000E+00  0.000E+00  0.000E+00  1.08888E+03  8.237E-01  7.346E+00  5.142E-02  1.275E+00
   1    3    3     1     3    7.5501E+00  1.6606E-01   7.3840E+00  0.000E+00  0.000E+00  0.000E+00  1.08324E+03  8.172E-01  7.251E+00  4.350E-02  1.272E+00
   1    3    4     1     4    7.3840E+00  1.5159E-01   7.2324E+00  0.000E+00  0.000E+00  0.000E+00  1.07822E+03  8.115E-01  7.166E+00  3.977E-02  1.270E+00
   1    4    5     2     1    5.2324E+00  2.7028E-01   4.9622E+00  0.000E+00  0.000E+00  0.000E+00  1.07240E+03  4.651E-01  1.200E+01  7.800E-02  1.155E+00
   1    5    6     2     2    4.9622E+00  2.0711E-01   4.7551E+00  0.000E+00  0.000E+00  0.000E+00  1.06696E+03  4.519E-01  1.200E+01  6.000E-02  1.151E+00
   1    6    6     2     3    4.7551E+00  2.0642E-01   4.5486E+00  0.000E+00  0.000E+00  0.000E+00  1.06223E+03  4.403E-01  1.200E+01  6.000E-02  1.147E+00
   1    7    6     2     4    4.5486E+00  2.0571E-01   4.3429E+00  0.000E+00  0.000E+00  0.000E+00  1.05750E+03  4.285E-01  1.200E+01  6.000E-02  1.143E+00
   1    8    6     2     5    4.3429E+00  2.0499E-01   4.1379E+00  0.000E+00  0.000E+00  0.000E+00  1.05278E+03  4.165E-01  1.200E+01  6.000E-02  1.139E+00
   1    3    5     3     1    2.0000E+00  2.8252E-01   1.7175E+00  0.000E+00  0.000E+00  0.000E+00  1.07555E+03  1.909E+00  9.636E+00  7.227E-02  1.955E+00
   1    3    6     3     2    1.7175E+00  2.4905E-01   1.4684E+00  0.000E+00  0.000E+00  0.000E+00  1.07264E+03  1.727E+00  8.909E+00  6.682E-02  1.864E+00
   1    3    7     3     3    1.4684E+00  1.9718E-01   1.2712E+00  0.000E+00  0.000E+00  0.000E+00  1.06987E+03  1.555E+00  8.218E+00  5.547E-02  1.777E+00
   1    4    8     3     4    1.2712E+00  2.2567E-01   1.0456E+00  0.000E+00  0.000E+00  0.000E+00  1.06682E+03  1.364E+00  7.455E+00  6.709E-02  1.682E+00
   1    5    8     3     5    1.0456E+00  1.5790E-01   8.8768E-01  0.000E+00  0.000E+00  0.000E+00  1.06362E+03  1.164E+00  6.655E+00  4.991E-02  1.582E+00
   1    6    8     3     6    8.8768E-01  5.5980E-02   8.3170E-01  0.000E+00  0.000E+00  0.000E+00  1.06158E+03  1.036E+00  6.145E+00  1.844E-02  1.518E+00
   1    5   10     4     1    1.0000E+01  9.0919E-02   9.9091E+00  0.000E+00  0.000E+00  0.000E+00  1.07836E+03  6.368E-01  1.000E+01  2.500E-02  1.212E+00
   1    5    9     4     2    9.9091E+00  1.8158E-01   9.7275E+00  0.000E+00  0.000E+00  0.000E+00  1.07154E+03  6.315E-01  1.000E+01  5.000E-02  1.211E+00
   1    6    8     4     3    9.7275E+00  1.2689E-01   9.6006E+00  0.000E+00  0.000E+00  0.000E+00  1.06381E+03  6.256E-01  1.000E+01  3.500E-02  1.209E+00
   1    6    8     5     1    1.0432E+01  2.2686E-01   1.0205E+01  0.000E+00  0.000E+00  0.000E+00  1.05868E+03  6.790E-01  1.542E+01  6.166E-02  1.226E+00
   1    7    7     5     2    1.0205E+01  2.7894E-01   9.9265E+00  0.000E+00  0.000E+00  0.000E+00  1.05417E+03  6.732E-01  1.519E+01  7.594E-02  1.224E+00
   1    8    7     5     3    9.9265E+00  1.9221E-01   9.7343E+00  0.000E+00  0.000E+00  0.000E+00  1.04992E+03  6.676E-01  1.497E+01  5.241E-02  1.223E+00
   1    8    6     5     4    9.7343E+00  1.3577E-01   9.5985E+00  0.000E+00  0.000E+00  0.000E+00  1.04691E+03  6.637E-01  1.482E+01  3.706E-02  1.221E+00
   1    9    6     6     1    1.3736E+01  2.3089E-01   1.3506E+01  0.000E+00  0.000E+00  0.000E+00  1.04358E+03  8.482E-01  1.200E+01  6.000E-02  1.283E+00
   1   10    7     6     2    1.3506E+01  2.3037E-01   1.3275E+01  0.000E+00  0.000E+00  0.000E+00  1.03902E+03  8.396E-01  1.200E+01  6.000E-02  1.280E+00
   1   11    7     6     3    1.3275E+01  2.2985E-01   1.3045E+01  0.000E+00  0.000E+00  0.000E+00  1.03447E+03  8.309E-01  1.200E+01  6.000E-02  1.277E+00
   1   12    7     6     4    1.3045E+01  2.2933E-01   1.2816E+01  0.000E+00  0.000E+00  0.000E+00  1.02991E+03  8.221E-01  1.200E+01  6.000E-02  1.274E+00
   1   13    7     6     5    1.2816E+01  1.1698E-02   1.2804E+01  0.000E+00  0.000E+00  0.000E+00  1.02673E+03  8.175E-01  1.200E+01  2.400E-02  1.625E-01
   1   14    9     7     1    1.5000E+02  1.4329E+00   1.4857E+02  0.000E+00  0.000E+00  0.000E+00  1.03987E+03  2.287E+00  5.529E+01  5.593E-01  8.540E-01
   1   13    8     7     2    1.4857E+02  2.1154E+00   1.4645E+02  0.000E+00  0.000E+00  0.000E+00  1.03478E+03  2.278E+00  5.525E+01  6.147E-01  1.147E+00
   1   13    7     7     3    1.4645E+02  1.9246E+00   1.4453E+02  0.000E+00  0.000E+00  0.000E+00  1.02969E+03  2.267E+00  5.520E+01  5.583E-01  1.149E+00
   1   13    6     8     1    1.5733E+02  1.2856E+00   1.5605E+02  0.000E+00  0.000E+00  0.000E+00  1.02474E+03  2.863E+00  4.152E+01  4.231E-01  1.013E+00
   1   13    5     8     2    1.5605E+02  5.2205E-01   1.5552E+02  0.000E+00  0.000E+00  0.000E+00  1.01848E+03  2.857E+00  4.143E+01  4.222E-01  4.122E-01
   1   13    4     8     3    1.5552E+02 -1.2354E+00   1.5676E+02  0.000E+00  0.000E+00  0.000E+00  1.01223E+03  2.860E+00  4.146E+01  4.225E+00 -9.746E-02
   1   13    3     8     4    1.5676E+02 -3.0600E+00   1.5982E+02  0.000E+00  0.000E+00  0.000E+00  1.00600E+03  2.874E+00  4.168E+01  4.247E+00 -2.402E-01
   1   13    2     8     5    1.5982E+02 -2.4302E+00   1.6225E+02  0.000E+00  0.000E+00  0.000E+00  9.99768E+02  2.893E+00  4.195E+01  4.274E+00 -1.895E-01
   1   13    1     8     6    1.6225E+02 -1.9411E+00   1.6419E+02  0.000E+00  0.000E+00  0.000E+00  9.94782E+02  2.907E+00  4.216E+01  2.578E+00 -2.510E-01
   1    8    6     9     1    0.0000E+00  0.0000E+00   0.0000E+00  0.000E+00  0.000E+00  0.000E+00  1.07875E+03  0.000E+00  4.000E+00  0.000E+00  1.000E+00
   1    8    5     9     2    0.0000E+00  0.0000E+00   0.0000E+00  0.000E+00  0.000E+00  0.000E+00  1.07825E+03  0.000E+00  4.000E+00  0.000E+00  1.000E+00





UNSATURATED ZONE PACKAGE VOLUMETRIC BUDGET FOR  TIME STEP    30 STRESS PERIOD   48
  ------------------------------------------------------------------------------



     CUMULATIVE VOLUMES      L**3       RATES FOR THIS TIME STEP      L**3/T
     ------------------                 ------------------------

           IN:                                      IN:
           ---                                      ---
        INFILTRATION = 13008458181.2955          INFILTRATION =           0.8475

          OUT:                                     OUT:
          ----                                     ----
              UZF ET =  1707920386.1984                UZF ET =           0.7950
        UZF RECHARGE = 10736035117.5037          UZF RECHARGE =          28.0676

            IN - OUT =   564502677.5935              IN - OUT =         -28.0151

          STORAGE:                                 STORAGE:
          --------                                 --------
      STORAGE CHANGE =   565884003.6781        STORAGE CHANGE =         -28.0151

 PERCENT DISCREPANCY IS DIFFERENCE BETWEEN IN-OUT MINUS CHANGE IN STORAGE
 DIVIDED BY THE AVERAGE OF IN AND OUT TIMES 100

 PERCENT DISCREPANCY =          -0.00     PERCENT DISCREPANCY =           0.00






1
  VOLUMETRIC BUDGET FOR AGRICULTURAL FIELDS AT  END OF TIME STEP   30, STRESS PERIOD  48
  ------------------------------------------------------------------------------

     CUMULATIVE VOLUMES      L**3       RATES FOR THIS TIME STEP      L**3/T
     ------------------                 ------------------------

           IN:                                      IN:
           ---                                      ---
               AG WELLS  = 12334709760.0000                 AG WELLS  =           0.0000
      DIVERSION SEGMENTS =   568930048.0000        DIVERSION SEGMENTS =           0.0000
           GW IRRIGATION =           0.0000             GW IRRIGATION =           0.0000
           SW IRRIGATION =           0.0000             SW IRRIGATION =           0.0000
        SYSTEM LOSSES GW =           0.0000          SYSTEM LOSSES GW =           0.0000
        SYSTEM LOSSES SW =           0.0000          SYSTEM LOSSES SW =           0.0000

                TOTAL IN = 12903640064.0000                  TOTAL IN =           0.0000

          OUT:                                     OUT:
          ----                                     ----
               AG WELLS  =           0.0000                 AG WELLS  =           0.0000
      DIVERSION SEGMENTS =           0.0000        DIVERSION SEGMENTS =           0.0000
           GW IRRIGATION = 12334709760.0000             GW IRRIGATION =           0.0000
           SW IRRIGATION =   568940352.0000             SW IRRIGATION =           0.0000
        SYSTEM LOSSES GW =           0.0000          SYSTEM LOSSES GW =           0.0000
        SYSTEM LOSSES SW =           0.0000          SYSTEM LOSSES SW =           0.0000

               TOTAL OUT = 12903650304.0000                 TOTAL OUT =           0.0000

                IN - OUT =      -10240.0000                  IN - OUT =           0.0000

     PERCENT DISCREPANCY =          -0.00         PERCENT DISCREPANCY =           0.00



1
  VOLUMETRIC BUDGET FOR ENTIRE MODEL AT END OF TIME STEP   30, STRESS PERIOD  48
  ------------------------------------------------------------------------------

     CUMULATIVE VOLUMES      L**3       RATES FOR THIS TIME STEP      L**3/T
     ------------------                 ------------------------

           IN:                                      IN:
           ---                                      ---
             STORAGE     = 11131064320.0000               STORAGE     =           5.4107
       CONSTANT HEAD     =           0.0000         CONSTANT HEAD     =           0.0000
     HEAD DEP BOUNDS     =    35852372.0000       HEAD DEP BOUNDS     =           0.2924
      STREAM LEAKAGE     =  1532860544.0000        STREAM LEAKAGE     =          12.3510
        UZF RECHARGE     = 10736032768.0000          UZF RECHARGE     =          28.0676
               GW ET     =           0.0000                 GW ET     =           0.0000
     SURFACE LEAKAGE     =           0.0000       SURFACE LEAKAGE     =           0.0000
           AG WELLS      =           0.0000             AG WELLS      =           0.0000

                TOTAL IN = 23435808768.0000                  TOTAL IN =          46.1217

          OUT:                                     OUT:
          ----                                     ----
             STORAGE     =  9919010816.0000               STORAGE     =          37.1657
       CONSTANT HEAD     =           0.0000         CONSTANT HEAD     =           0.0000
     HEAD DEP BOUNDS     =    35581756.0000       HEAD DEP BOUNDS     =           0.2863
      STREAM LEAKAGE     =  1146329856.0000        STREAM LEAKAGE     =           8.6667
        UZF RECHARGE     =           0.0000          UZF RECHARGE     =           0.0000
               GW ET     =           0.0000                 GW ET     =           0.0000
     SURFACE LEAKAGE     =           0.0000       SURFACE LEAKAGE     =           0.0000
           AG WELLS      = 12334709760.0000             AG WELLS      =           0.0000

               TOTAL OUT = 23435632640.0000                 TOTAL OUT =          46.1187

                IN - OUT =      176128.0000                  IN - OUT =       3.0136E-03

     PERCENT DISCREPANCY =           0.00         PERCENT DISCREPANCY =           0.01






         TIME SUMMARY AT END OF TIME STEP   30 IN STRESS PERIOD   48
                    SECONDS     MINUTES      HOURS       DAYS        YEARS
                    -----------------------------------------------------------
   TIME STEP LENGTH  87667.      1461.1      24.352      1.0147     2.77799E-03
 STRESS PERIOD TIME 2.63000E+06  43833.      730.56      30.440     8.33397E-02
         TOTAL TIME 1.23695E+08 2.06158E+06  34360.      1431.7      3.9197    
1
1
                            STRESS PERIOD NO.   49, LENGTH =   2630000.    
                            -----------------------------------------------

                              NUMBER OF TIME STEPS =    30

                               MULTIPLIER FOR DELT =     1.000

                            INITIAL TIME STEP SIZE =   87666.66    

 REUSING NON-PARAMETER GHB CELLS FROM LAST STRESS PERIOD

      2 GHB CELLS

 REUSING STREAM SEGMENT DATA FROM LAST STRESS PERIOD



            AREAL INFILTRATION RATE
 READING ON UNIT   19 WITH FORMAT: (FREE)              

            1           2           3           4           5           6           7           8           9          10
 ........................................................................................................................
   1   1.0000E-10  2.0000E-10   0.000       0.000       0.000       0.000       0.000       0.000       0.000       0.000    
   2   2.0000E-10  1.0000E-10  2.0000E-10   0.000       0.000      8.0000E-10  8.0000E-10  5.0000E-10   0.000       0.000    
   3    0.000      5.0000E-10  1.0000E-10  1.0000E-10  8.0000E-10  8.0000E-10  5.0000E-10  5.0000E-10   0.000       0.000    
   4   8.0000E-10  5.0000E-10  1.0000E-10  1.0000E-10  1.0000E-10  1.0000E-10  1.0000E-10  1.0000E-10  2.0000E-10   0.000    
   5   8.0000E-10  5.0000E-10  1.0000E-10  1.0000E-10  1.0000E-10  1.0000E-10  1.0000E-10  1.0000E-10  1.0000E-10  1.0000E-10
   6   8.0000E-10  5.0000E-10  5.0000E-10  2.0000E-10  2.0000E-10  1.0000E-10  1.0000E-10  1.0000E-10  1.0000E-10  5.0000E-10
   7   8.0000E-10  5.0000E-10  5.0000E-10  2.0000E-10  2.0000E-10  1.0000E-10  1.0000E-10  2.0000E-10  2.0000E-10   0.000    
   8    0.000      5.0000E-10  5.0000E-10  2.0000E-10  2.0000E-10  1.0000E-10  1.0000E-10  2.0000E-10  5.0000E-10   0.000    
   9    0.000      5.0000E-10  5.0000E-10  2.0000E-10  2.0000E-10  1.0000E-10  1.0000E-10  2.0000E-10  5.0000E-10   0.000    
  10    0.000      5.0000E-10  5.0000E-10  2.0000E-10  2.0000E-10  1.0000E-10  1.0000E-10  2.0000E-10  5.0000E-10  8.0000E-10
  11    0.000      1.0000E-10  1.0000E-10  1.0000E-10  1.0000E-10  1.0000E-10  1.0000E-10  2.0000E-10  5.0000E-10   0.000    
  12   1.0000E-10  1.0000E-10  1.0000E-10  1.0000E-10  1.0000E-10  1.0000E-10  1.0000E-10  1.0000E-10  2.0000E-10   0.000    
  13   1.0000E-10  1.0000E-10  2.0000E-10  2.0000E-10  2.0000E-10  2.0000E-10  2.0000E-10  1.0000E-10  1.0000E-10   0.000    
  14    0.000      2.0000E-10  5.0000E-10  5.0000E-10  5.0000E-10  5.0000E-10  5.0000E-10  2.0000E-10  1.0000E-10   0.000    
  15    0.000       0.000      8.0000E-10  8.0000E-10  8.0000E-10  8.0000E-10   0.000       0.000       0.000       0.000    

                  ET RATE =  5.000000E-10

 USING ET EXTINCTION DEPTH FROM PREVIOUS STRESS PERIOD. CURRENT PERIOD IS:      49

 USING EXTINCTION WATER CONTENT FROM PREVIOUS STRESS PERIOD. CURRENT PERIOD IS:      49

 USING AIR ENTRY PRESSURE FROM PREVIOUS STRESS PERIOD. CURRENT PERIOD IS:      49

 USING ROOT PRESSURE HEAD FROM PREVIOUS STRESS PERIOD. CURRENT PERIOD IS:      49

 USING ROOT ACTIVITY FROM PREVIOUS STRESS PERIOD. CURRENT PERIOD IS:      49

 PROCESSING AG STRESS PERIOD DATA

 READING AG STRESS PERIOD DATA

 READING IRRIGATION SEGMENT

 READING IRRIGATION WELL

 READING SUPPLEMENTAL WELL

 END PROCESSING AG STRESS PERIOD DATA OPTIONS
 
 SOLVING FOR HEAD 
                                                   Max.-Head-Change                         Max.-Flux-Residual
  Residual-Control   Outer-Iter.   Inner-Iter.     Column Row Layer    Maximum-Head-Change  Column Row Layer    Maximum-Flux-Residual          L2-NORM 
          0                 1           2             4    8     1       0.6318971674E-01       5    7    1         0.3351747080E+01      0.7368277593E+01
          0                 2           2             4    8     1       0.2278435342E-01       4    8    1         0.1220525657E+01      0.2082206230E+01
          0                 3           2             4    8     1       0.8220113826E-02       4    8    1         0.4389547944E+00      0.7280780833E+00
          0                 4           2             4    8     1       0.2967247385E-02       4    8    1         0.1584606550E+00      0.2625559604E+00
          0                 5           2             4    8     1       0.1071637094E-02       4    8    1         0.5720373335E-01      0.9478457396E-01
          0                 6           2             4    8     1       0.3872079287E-03       4    8    1         0.2066177431E-01      0.3424173680E-01
          0                 7           2             4    8     1       0.1399679573E-03       4    8    1         0.7466327446E-02      0.1237682090E-01
          0                 8           1             4    8     1       0.5061591551E-04       4    8    1         0.2699177836E-02      0.4475862121E-02

    ------------------------------------------------
       NWT REQUIRED            8 OUTER ITERATIONS 
       AND A TOTAL OF         15 INNER ITERATIONS.
    ------------------------------------------------

 NO OUTPUT CONTROL FOR STRESS PERIOD   49   TIME STEP    1
 
 SOLVING FOR HEAD 
                                                   Max.-Head-Change                         Max.-Flux-Residual
  Residual-Control   Outer-Iter.   Inner-Iter.     Column Row Layer    Maximum-Head-Change  Column Row Layer    Maximum-Flux-Residual          L2-NORM 
          0                 1           2             4    7     1       0.6868959329E-01       4    7    1         0.3640153984E+01      0.8151655743E+01
          0                 2           2             4    7     1       0.2496159498E-01       4    7    1         0.1327067218E+01      0.2456523015E+01
          0                 3           2             4    7     1       0.9074095252E-02       4    7    1         0.4818569027E+00      0.8728261503E+00
          0                 4           2             4    7     1       0.3299559625E-02       4    7    1         0.1752062078E+00      0.3171451604E+00
          0                 5           2             4    7     1       0.1200069862E-02       4    7    1         0.6371173296E-01      0.1152728138E+00
          0                 6           2             4    7     1       0.4365513489E-03       4    7    1         0.2317346323E-01      0.4190626360E-01
          0                 7           2             4    7     1       0.1588276523E-03       4    7    1         0.8430157037E-02      0.1523628776E-01
          0                 8           1             4    7     1       0.5779169238E-04       4    7    1         0.3067178838E-02      0.5539584376E-02

    ------------------------------------------------
       NWT REQUIRED            8 OUTER ITERATIONS 
       AND A TOTAL OF         15 INNER ITERATIONS.
    ------------------------------------------------

 NO OUTPUT CONTROL FOR STRESS PERIOD   49   TIME STEP    2
 
 SOLVING FOR HEAD 
                                                   Max.-Head-Change                         Max.-Flux-Residual
  Residual-Control   Outer-Iter.   Inner-Iter.     Column Row Layer    Maximum-Head-Change  Column Row Layer    Maximum-Flux-Residual          L2-NORM 
          0                 1           2             4    7     1       0.6632407027E-01       4    7    1         0.3510909914E+01      0.8385438612E+01
          0                 2           2             4    7     1       0.2413264855E-01       4    7    1         0.1281754380E+01      0.2549756289E+01
          0                 3           2             4    7     1       0.8784283412E-02       4    7    1         0.4659806473E+00      0.9049565353E+00
          0                 4           2             4    7     1       0.3198463951E-02       4    7    1         0.1696588696E+00      0.3281841465E+00
          0                 5           2             4    7     1       0.1164881245E-02       4    7    1         0.6177758469E-01      0.1190668952E+00
          0                 6           2             4    7     1       0.4243293371E-03       4    7    1         0.2250056568E-01      0.4321286093E-01
          0                 7           2             4    7     1       0.1545915790E-03       4    7    1         0.8196551787E-02      0.1568670081E-01
          0                 8           1             4    7     1       0.5632659629E-04       4    7    1         0.2986251012E-02      0.5695554866E-02

    ------------------------------------------------
       NWT REQUIRED            8 OUTER ITERATIONS 
       AND A TOTAL OF         15 INNER ITERATIONS.
    ------------------------------------------------

 NO OUTPUT CONTROL FOR STRESS PERIOD   49   TIME STEP    3
 
 SOLVING FOR HEAD 
                                                   Max.-Head-Change                         Max.-Flux-Residual
  Residual-Control   Outer-Iter.   Inner-Iter.     Column Row Layer    Maximum-Head-Change  Column Row Layer    Maximum-Flux-Residual          L2-NORM 
          0                 1           2             4    7     1       0.6415936241E-01       4    7    1         0.3392511835E+01      0.8241125069E+01
          0                 2           2             4    7     1       0.2337112579E-01       4    7    1         0.1240300875E+01      0.2477821654E+01
          0                 3           2             4    7     1       0.8515245419E-02       4    7    1         0.4513783365E+00      0.8782977568E+00
          0                 4           2             4    7     1       0.3103043949E-02       4    7    1         0.1644955752E+00      0.3185845806E+00
          0                 5           2             4    7     1       0.1130919862E-02       4    7    1         0.5994476173E-01      0.1156046547E+00
          0                 6           2             4    7     1       0.4122042137E-03       4    7    1         0.2184774899E-01      0.4196207823E-01
          0                 7           2             4    7     1       0.1502505970E-03       4    7    1         0.7963323721E-02      0.1523424626E-01
          0                 8           1             4    7     1       0.5476866248E-04       4    7    1         0.2902702741E-02      0.5531723568E-02

    ------------------------------------------------
       NWT REQUIRED            8 OUTER ITERATIONS 
       AND A TOTAL OF         15 INNER ITERATIONS.
    ------------------------------------------------

 NO OUTPUT CONTROL FOR STRESS PERIOD   49   TIME STEP    4
 
 SOLVING FOR HEAD 
                                                   Max.-Head-Change                         Max.-Flux-Residual
  Residual-Control   Outer-Iter.   Inner-Iter.     Column Row Layer    Maximum-Head-Change  Column Row Layer    Maximum-Flux-Residual          L2-NORM 
          0                 1           2             4    7     1       0.6216790580E-01       4    7    1         0.3283729528E+01      0.8112393986E+01
          0                 2           2             4    7     1       0.2266864147E-01       4    7    1         0.1202151109E+01      0.2411831543E+01
          0                 3           2             4    7     1       0.8266204222E-02       4    7    1         0.4378990965E+00      0.8538734415E+00
          0                 4           2             4    7     1       0.3014373048E-02       4    7    1         0.1597122818E+00      0.3098161417E+00
          0                 5           2             4    7     1       0.1099229971E-02       4    7    1         0.5824009529E-01      0.1124519425E+00
          0                 6           2             4    7     1       0.4008419636E-03       4    7    1         0.2123803881E-01      0.4082650409E-01
          0                 7           2             4    7     1       0.1461654467E-03       4    7    1         0.7744566314E-02      0.1482462995E-01
          0                 8           1             4    7     1       0.5329645085E-04       4    7    1         0.2824005738E-02      0.5383798257E-02

    ------------------------------------------------
       NWT REQUIRED            8 OUTER ITERATIONS 
       AND A TOTAL OF         15 INNER ITERATIONS.
    ------------------------------------------------

 NO OUTPUT CONTROL FOR STRESS PERIOD   49   TIME STEP    5
 
 SOLVING FOR HEAD 
                                                   Max.-Head-Change                         Max.-Flux-Residual
  Residual-Control   Outer-Iter.   Inner-Iter.     Column Row Layer    Maximum-Head-Change  Column Row Layer    Maximum-Flux-Residual          L2-NORM 
          0                 1           2             4    7     1       0.6087075130E-01       4    7    1         0.3183491240E+01      0.8434874277E+01
          0                 2           2             4    7     1       0.2246248295E-01       4    7    1         0.1180240430E+01      0.2563694144E+01
          0                 3           2             4    7     1       0.8284665371E-02       4    7    1         0.4350150436E+00      0.9152098953E+00
          0                 4           2             4    7     1       0.3054041639E-02       4    7    1         0.1604551348E+00      0.3341063076E+00
          0                 5           2             4    7     1       0.1125306399E-02       4    7    1         0.5914241476E-01      0.1219869502E+00
          0                 6           2             4    7     1       0.4144524649E-03       4    7    1         0.2178978442E-01      0.4454611717E-01
          0                 7           2             4    7     1       0.1525801981E-03       4    7    1         0.8024469885E-02      0.1626799409E-01
          0                 8           1             4    7     1       0.5615025850E-04       4    7    1         0.2953940727E-02      0.5941371310E-02

    ------------------------------------------------
       NWT REQUIRED            8 OUTER ITERATIONS 
       AND A TOTAL OF         15 INNER ITERATIONS.
    ------------------------------------------------

 NO OUTPUT CONTROL FOR STRESS PERIOD   49   TIME STEP    6
 
 SOLVING FOR HEAD 
                                                   Max.-Head-Change                         Max.-Flux-Residual
  Residual-Control   Outer-Iter.   Inner-Iter.     Column Row Layer    Maximum-Head-Change  Column Row Layer    Maximum-Flux-Residual          L2-NORM 
          0                 1           2             4    7     1       0.6010633704E-01       4    6    1         0.3152838045E+01      0.8510386065E+01
          0                 2           2             4    7     1       0.2222289452E-01       4    7    1         0.1165958664E+01      0.2584108509E+01
          0                 3           2             4    7     1       0.8210426407E-02       4    7    1         0.4305451491E+00      0.9223236987E+00
          0                 4           2             4    7     1       0.3031372099E-02       4    7    1         0.1590743954E+00      0.3366757363E+00
          0                 5           2             4    7     1       0.1118516120E-02       4    7    1         0.5872238764E-01      0.1229160187E+00
          0                 6           2             4    7     1       0.4124714961E-03       4    7    1         0.2166461646E-01      0.4488224730E-01
          0                 7           2             4    7     1       0.1520239114E-03       4    7    1         0.7988216955E-02      0.1638965809E-01
          0                 8           1             4    7     1       0.5600311892E-04       4    7    1         0.2943870719E-02      0.5985427241E-02

    ------------------------------------------------
       NWT REQUIRED            8 OUTER ITERATIONS 
       AND A TOTAL OF         15 INNER ITERATIONS.
    ------------------------------------------------

 NO OUTPUT CONTROL FOR STRESS PERIOD   49   TIME STEP    7
 
 SOLVING FOR HEAD 
                                                   Max.-Head-Change                         Max.-Flux-Residual
  Residual-Control   Outer-Iter.   Inner-Iter.     Column Row Layer    Maximum-Head-Change  Column Row Layer    Maximum-Flux-Residual          L2-NORM 
          0                 1           2             4    7     1       0.5938868124E-01       4    7    1         0.3101991759E+01      0.8428127713E+01
          0                 2           2             4    7     1       0.2195341786E-01       4    7    1         0.1152128160E+01      0.2534434020E+01
          0                 3           2             4    7     1       0.8108653083E-02       4    7    1         0.4252941656E+00      0.9034765560E+00
          0                 4           2             4    7     1       0.2993125397E-02       4    7    1         0.1570938797E+00      0.3298073194E+00
          0                 5           2             4    7     1       0.1104203979E-02       4    7    1         0.5797884060E-01      0.1204154007E+00
          0                 6           2             4    7     1       0.4071355396E-03       4    7    1         0.2138661885E-01      0.4397174532E-01
          0                 7           2             4    7     1       0.1500409233E-03       4    7    1         0.7884650209E-02      0.1605809043E-01
          0                 8           1             4    7     1       0.5526827142E-04       4    7    1         0.2905407996E-02      0.5864671018E-02

    ------------------------------------------------
       NWT REQUIRED            8 OUTER ITERATIONS 
       AND A TOTAL OF         15 INNER ITERATIONS.
    ------------------------------------------------

 NO OUTPUT CONTROL FOR STRESS PERIOD   49   TIME STEP    8
 
 SOLVING FOR HEAD 
                                                   Max.-Head-Change                         Max.-Flux-Residual
  Residual-Control   Outer-Iter.   Inner-Iter.     Column Row Layer    Maximum-Head-Change  Column Row Layer    Maximum-Flux-Residual          L2-NORM 
          0                 1           2             4    7     1       0.5866314039E-01       4    7    1         0.3064586579E+01      0.8349810266E+01
          0                 2           2             4    7     1       0.2167088562E-01       4    7    1         0.1137781661E+01      0.2486818313E+01
          0                 3           2             4    7     1       0.8000464974E-02       4    7    1         0.4197733739E+00      0.8853806867E+00
          0                 4           2             4    7     1       0.2951889772E-02       4    7    1         0.1549824239E+00      0.3232059769E+00
          0                 5           2             4    7     1       0.1088549935E-02       4    7    1         0.5717480348E-01      0.1180094282E+00
          0                 6           2             4    7     1       0.4012135237E-03       4    7    1         0.2108163386E-01      0.4309465510E-01
          0                 7           2             4    7     1       0.1478074030E-03       4    7    1         0.7769353965E-02      0.1573826869E-01
          0                 8           1             4    7     1       0.5442814342E-04       4    7    1         0.2861950319E-02      0.5748024803E-02

    ------------------------------------------------
       NWT REQUIRED            8 OUTER ITERATIONS 
       AND A TOTAL OF         15 INNER ITERATIONS.
    ------------------------------------------------

 NO OUTPUT CONTROL FOR STRESS PERIOD   49   TIME STEP    9
 
 SOLVING FOR HEAD 
                                                   Max.-Head-Change                         Max.-Flux-Residual
  Residual-Control   Outer-Iter.   Inner-Iter.     Column Row Layer    Maximum-Head-Change  Column Row Layer    Maximum-Flux-Residual          L2-NORM 
          0                 1           2             4    7     1       0.5788935653E-01       4    7    1         0.3026106918E+01      0.8002409447E+01
          0                 2           2             4    7     1       0.2135851969E-01       4    7    1         0.1122579438E+01      0.2293343344E+01
          0                 3           2             4    7     1       0.7872522635E-02       4    7    1         0.4136036243E+00      0.8088278345E+00
          0                 4           2             4    7     1       0.2899167677E-02       4    7    1         0.1524495264E+00      0.2937671570E+00
          0                 5           2             4    7     1       0.1066813785E-02       4    7    1         0.5613012255E-01      0.1067973456E+00
          0                 6           2             4    7     1       0.3922780232E-03       4    7    1         0.2065097712E-01      0.3884681002E-01
          0                 7           2             4    7     1       0.1441515595E-03       4    7    1         0.7592435551E-02      0.1413531906E-01
          0                 8           1             4    7     1       0.5294086335E-04       4    7    1         0.2789638577E-02      0.5144948133E-02

    ------------------------------------------------
       NWT REQUIRED            8 OUTER ITERATIONS 
       AND A TOTAL OF         15 INNER ITERATIONS.
    ------------------------------------------------

 NO OUTPUT CONTROL FOR STRESS PERIOD   49   TIME STEP   10
 
 SOLVING FOR HEAD 
                                                   Max.-Head-Change                         Max.-Flux-Residual
  Residual-Control   Outer-Iter.   Inner-Iter.     Column Row Layer    Maximum-Head-Change  Column Row Layer    Maximum-Flux-Residual          L2-NORM 
          0                 1           2             4    7     1       0.5703683659E-01       4    7    1         0.2983701346E+01      0.7870416150E+01
          0                 2           2             4    7     1       0.2102683406E-01       4    7    1         0.1105831369E+01      0.2236102552E+01
          0                 3           2             4    7     1       0.7745186143E-02       4    7    1         0.4071128427E+00      0.7882923107E+00
          0                 4           2             4    7     1       0.2850736384E-02       4    7    1         0.1499636568E+00      0.2865527516E+00
          0                 5           2             4    7     1       0.1048532282E-02       4    7    1         0.5518637584E-01      0.1042522508E+00
          0                 6           2             4    7     1       0.3854202743E-03       4    7    1         0.2029527741E-01      0.3794555168E-01
          0                 7           2             4    7     1       0.1415925417E-03       4    7    1         0.7459173870E-02      0.1381523636E-01
          0                 8           1             4    7     1       0.5199019353E-04       4    7    1         0.2739964008E-02      0.5031021271E-02

    ------------------------------------------------
       NWT REQUIRED            8 OUTER ITERATIONS 
       AND A TOTAL OF         15 INNER ITERATIONS.
    ------------------------------------------------

 NO OUTPUT CONTROL FOR STRESS PERIOD   49   TIME STEP   11
 
 SOLVING FOR HEAD 
                                                   Max.-Head-Change                         Max.-Flux-Residual
  Residual-Control   Outer-Iter.   Inner-Iter.     Column Row Layer    Maximum-Head-Change  Column Row Layer    Maximum-Flux-Residual          L2-NORM 
          0                 1           2             4    7     1       0.5614465765E-01       4    7    1         0.2938511817E+01      0.7751006627E+01
          0                 2           2             4    7     1       0.2068245463E-01       4    7    1         0.1088385437E+01      0.2180309226E+01
          0                 3           2             4    7     1       0.7613186494E-02       4    7    1         0.4003793258E+00      0.7679772072E+00
          0                 4           2             4    7     1       0.2800483515E-02       4    7    1         0.1473872601E+00      0.2793185019E+00
          0                 5           2             4    7     1       0.1029505396E-02       4    7    1         0.5420683619E-01      0.1016574023E+00
          0                 6           2             4    7     1       0.3782482988E-03       4    7    1         0.1992480637E-01      0.3700865313E-01
          0                 7           2             4    7     1       0.1388989629E-03       4    7    1         0.7319653346E-02      0.1347509921E-01
          0                 8           1             4    7     1       0.5098157260E-04       4    7    1         0.2687602529E-02      0.4906990716E-02

    ------------------------------------------------
       NWT REQUIRED            8 OUTER ITERATIONS 
       AND A TOTAL OF         15 INNER ITERATIONS.
    ------------------------------------------------

 NO OUTPUT CONTROL FOR STRESS PERIOD   49   TIME STEP   12
 
 SOLVING FOR HEAD 
                                                   Max.-Head-Change                         Max.-Flux-Residual
  Residual-Control   Outer-Iter.   Inner-Iter.     Column Row Layer    Maximum-Head-Change  Column Row Layer    Maximum-Flux-Residual          L2-NORM 
          0                 1           2             4    7     1       0.5522052740E-01       4    7    1         0.2891351217E+01      0.7645326405E+01
          0                 2           2             4    7     1       0.2033030498E-01       4    7    1         0.1070350047E+01      0.2130867521E+01
          0                 3           2             4    7     1       0.7479795332E-02       4    7    1         0.3935134549E+00      0.7497466644E+00
          0                 4           2             4    7     1       0.2750200483E-02       4    7    1         0.1447898441E+00      0.2727729670E+00
          0                 5           2             4    7     1       0.1010626191E-02       4    7    1         0.5322865596E-01      0.9929895038E-01
          0                 6           2             4    7     1       0.3711834318E-03       4    7    1         0.1955783521E-01      0.3615633823E-01
          0                 7           2             4    7     1       0.1362625624E-03       4    7    1         0.7182419739E-02      0.1316641458E-01
          0                 8           1             4    7     1       0.5000007659E-04       4    7    1         0.2636420081E-02      0.4795019566E-02

    ------------------------------------------------
       NWT REQUIRED            8 OUTER ITERATIONS 
       AND A TOTAL OF         15 INNER ITERATIONS.
    ------------------------------------------------

 NO OUTPUT CONTROL FOR STRESS PERIOD   49   TIME STEP   13
 
 SOLVING FOR HEAD 
                                                   Max.-Head-Change                         Max.-Flux-Residual
  Residual-Control   Outer-Iter.   Inner-Iter.     Column Row Layer    Maximum-Head-Change  Column Row Layer    Maximum-Flux-Residual          L2-NORM 
          0                 1           2             4    7     1       0.5407900418E-01       4    7    1         0.2842875725E+01      0.7351410871E+01
          0                 2           2             4    7     1       0.1979438679E-01       4    7    1         0.1047092699E+01      0.1965933233E+01
          0                 3           2             4    7     1       0.7235512855E-02       4    7    1         0.3826453180E+00      0.6815552297E+00
          0                 4           2             4    7     1       0.2641854149E-02       4    7    1         0.1398625806E+00      0.2460333387E+00
          0                 5           2             4    7     1       0.9636977286E-03       4    7    1         0.5105398999E-01      0.8897332522E-01
          0                 6           2             4    7     1       0.3512623088E-03       4    7    1         0.1861996461E-01      0.3220610150E-01
          0                 7           2             4    7     1       0.1279486779E-03       4    7    1         0.6785766588E-02      0.1166484566E-01
          0                 8           1             4    7     1       0.4657995676E-04       4    7    1         0.2471405020E-02      0.4226811004E-02

    ------------------------------------------------
       NWT REQUIRED            8 OUTER ITERATIONS 
       AND A TOTAL OF         15 INNER ITERATIONS.
    ------------------------------------------------

 NO OUTPUT CONTROL FOR STRESS PERIOD   49   TIME STEP   14
 
 SOLVING FOR HEAD 
                                                   Max.-Head-Change                         Max.-Flux-Residual
  Residual-Control   Outer-Iter.   Inner-Iter.     Column Row Layer    Maximum-Head-Change  Column Row Layer    Maximum-Flux-Residual          L2-NORM 
          0                 1           2             4    7     1       0.5215901031E-01       4    7    1         0.2774208758E+01      0.6938985314E+01
          0                 2           2             4    7     1       0.1882233922E-01       4    7    1         0.1006686525E+01      0.1740817917E+01
          0                 3           2             4    7     1       0.6789816295E-02       4    7    1         0.3627546590E+00      0.5923489777E+00
          0                 4           2             4    7     1       0.2448614367E-02       4    7    1         0.1308789175E+00      0.2120322739E+00
          0                 5           2             4    7     1       0.8828517159E-03       4    7    1         0.4719409919E-01      0.7609568679E-01
          0                 6           2             4    7     1       0.3182653268E-03       4    7    1         0.1701491479E-01      0.2734501212E-01
          0                 7           2             4    7     1       0.1147229978E-03       4    7    1         0.6133549585E-02      0.9835054936E-02
          0                 8           1             4    7     1       0.4135147657E-04       4    7    1         0.2210851638E-02      0.3539702477E-02

    ------------------------------------------------
       NWT REQUIRED            8 OUTER ITERATIONS 
       AND A TOTAL OF         15 INNER ITERATIONS.
    ------------------------------------------------

 NO OUTPUT CONTROL FOR STRESS PERIOD   49   TIME STEP   15
 
 SOLVING FOR HEAD 
                                                   Max.-Head-Change                         Max.-Flux-Residual
  Residual-Control   Outer-Iter.   Inner-Iter.     Column Row Layer    Maximum-Head-Change  Column Row Layer    Maximum-Flux-Residual          L2-NORM 
          0                 1           2             4    7     1       0.4949520741E-01       4    7    1         0.2654915441E+01      0.6666950879E+01
          0                 2           2             4    7     1       0.1769310438E-01       4    7    1         0.9530330088E+00      0.1605036079E+01
          0                 3           2             4    7     1       0.6333940677E-02       4    7    1         0.3403175792E+00      0.5425058710E+00
          0                 4           2             4    6     1       0.2283450732E-02       4    7    1         0.1218959050E+00      0.1943223963E+00
          0                 5           2             4    6     1       0.8282448053E-03       4    6    1         0.4406920546E-01      0.6980978000E-01
          0                 6           2             4    6     1       0.3002828718E-03       4    6    1         0.1598308256E-01      0.2511109799E-01
          0                 7           1             4    6     1       0.1088250247E-03       4    6    1         0.5794164512E-02      0.9040538382E-02
          0                 8           1             4    6     1       0.3942501401E-04       4    6    1         0.2099675813E-02      0.3256974643E-02

    ------------------------------------------------
       NWT REQUIRED            8 OUTER ITERATIONS 
       AND A TOTAL OF         14 INNER ITERATIONS.
    ------------------------------------------------

 NO OUTPUT CONTROL FOR STRESS PERIOD   49   TIME STEP   16
 
 SOLVING FOR HEAD 
                                                   Max.-Head-Change                         Max.-Flux-Residual
  Residual-Control   Outer-Iter.   Inner-Iter.     Column Row Layer    Maximum-Head-Change  Column Row Layer    Maximum-Flux-Residual          L2-NORM 
          0                 1           2             4    6     1       0.4614500936E-01       4    6    1         0.2436798802E+01      0.6106836249E+01
          0                 2           2             4    6     1       0.1657647213E-01       4    6    1         0.8923713517E+00      0.1293945101E+01
          0                 3           2             4    6     1       0.5948894895E-02       4    6    1         0.3189614765E+00      0.4183023469E+00
          0                 4           2             4    6     1       0.2133173691E-02       4    6    1         0.1145413981E+00      0.1478132561E+00
          0                 5           2             4    6     1       0.7643934603E-03       4    6    1         0.4106165979E-01      0.5246034536E-01
          0                 6           2             4    6     1       0.2737502661E-03       4    6    1         0.1471192005E-01      0.1864825614E-01
          0                 7           1             4    6     1       0.9798902341E-04       4    6    1         0.5268091073E-02      0.6635563747E-02

    ------------------------------------------------
       NWT REQUIRED            7 OUTER ITERATIONS 
       AND A TOTAL OF         13 INNER ITERATIONS.
    ------------------------------------------------

 NO OUTPUT CONTROL FOR STRESS PERIOD   49   TIME STEP   17
 
 SOLVING FOR HEAD 
                                                   Max.-Head-Change                         Max.-Flux-Residual
  Residual-Control   Outer-Iter.   Inner-Iter.     Column Row Layer    Maximum-Head-Change  Column Row Layer    Maximum-Flux-Residual          L2-NORM 
          0                 1           2             3    7     1       0.4426285563E-01       4    6    1         0.2342456591E+01      0.5631598269E+01
          0                 2           2             4    6     1       0.1540415783E-01       4    6    1         0.8415877385E+00      0.9993595351E+00
          0                 3           2             4    6     1       0.5431662881E-02       4    6    1         0.2951753987E+00      0.3020527161E+00
          0                 4           2             4    6     1       0.1915778801E-02       4    6    1         0.1041829906E+00      0.1056577277E+00
          0                 5           2             4    6     1       0.6758762627E-03       4    6    1         0.3674364344E-01      0.3721080913E-01
          0                 6           2             4    6     1       0.2385012437E-03       4    6    1         0.1296364814E-01      0.1312008949E-01
          0                 7           1             4    6     1       0.8417992437E-04       4    6    1         0.4574741877E-02      0.4629311329E-02

    ------------------------------------------------
       NWT REQUIRED            7 OUTER ITERATIONS 
       AND A TOTAL OF         13 INNER ITERATIONS.
    ------------------------------------------------

 NO OUTPUT CONTROL FOR STRESS PERIOD   49   TIME STEP   18
 
 SOLVING FOR HEAD 
                                                   Max.-Head-Change                         Max.-Flux-Residual
  Residual-Control   Outer-Iter.   Inner-Iter.     Column Row Layer    Maximum-Head-Change  Column Row Layer    Maximum-Flux-Residual          L2-NORM 
          0                 1           2             3    7     1       0.4362179095E-01       4    6    1         0.2196096897E+01      0.5544934849E+01
          0                 2           2             4    6     1       0.1429743564E-01       4    6    1         0.7848323352E+00      0.9596077216E+00
          0                 3           2             4    6     1       0.5016189569E-02       4    6    1         0.2736087551E+00      0.2837685163E+00
          0                 4           2             4    6     1       0.1761695655E-02       4    6    1         0.9611486298E-01      0.9804121932E-01
          0                 5           2             4    6     1       0.6192510552E-03       4    6    1         0.3375915288E-01      0.3423167613E-01
          0                 6           2             4    6     1       0.2178351735E-03       4    6    1         0.1186900707E-01      0.1199035338E-01
          0                 7           1             4    6     1       0.7667757889E-04       4    6    1         0.4175845994E-02      0.4209308460E-02

    ------------------------------------------------
       NWT REQUIRED            7 OUTER ITERATIONS 
       AND A TOTAL OF         13 INNER ITERATIONS.
    ------------------------------------------------

 NO OUTPUT CONTROL FOR STRESS PERIOD   49   TIME STEP   19
 
 SOLVING FOR HEAD 
                                                   Max.-Head-Change                         Max.-Flux-Residual
  Residual-Control   Outer-Iter.   Inner-Iter.     Column Row Layer    Maximum-Head-Change  Column Row Layer    Maximum-Flux-Residual          L2-NORM 
          0                 1           2             3    7     1       0.4301105503E-01       4    6    1         0.2044312556E+01      0.5392837428E+01
          0                 2           2             4    6     1       0.1335933045E-01       4    6    1         0.7328136367E+00      0.9064413451E+00
          0                 3           2             4    6     1       0.4692703206E-02       4    6    1         0.2557157804E+00      0.2647254420E+00
          0                 4           2             4    6     1       0.1649816609E-02       4    6    1         0.8994045597E-01      0.9166479155E-01
          0                 5           2             4    6     1       0.5804548732E-03       4    6    1         0.3162231706E-01      0.3207529638E-01
          0                 6           2             4    6     1       0.2043502795E-03       4    6    1         0.1112759201E-01      0.1125398002E-01
          0                 7           1             4    6     1       0.7198072985E-04       4    6    1         0.3918011379E-02      0.3955757576E-02

    ------------------------------------------------
       NWT REQUIRED            7 OUTER ITERATIONS 
       AND A TOTAL OF         13 INNER ITERATIONS.
    ------------------------------------------------

 NO OUTPUT CONTROL FOR STRESS PERIOD   49   TIME STEP   20
 
 SOLVING FOR HEAD 
                                                   Max.-Head-Change                         Max.-Flux-Residual
  Residual-Control   Outer-Iter.   Inner-Iter.     Column Row Layer    Maximum-Head-Change  Column Row Layer    Maximum-Flux-Residual          L2-NORM 
          0                 1           2             3    7     1       0.4242853550E-01       4    6    1         0.1887780396E+01      0.5252524029E+01
          0                 2           2             4    6     1       0.1077356624E-01       4    6    1         0.5911176814E+00      0.7877550917E+00
          0                 3           2             4    6     1       0.3295832569E-02       4    6    1         0.1793837025E+00      0.1908766755E+00
          0                 4           2             4    6     1       0.1009068925E-02       4    6    1         0.5497310131E-01      0.5759768341E-01
          0                 5           2             4    6     1       0.3091895349E-03       4    6    1         0.1683069591E-01      0.1765390864E-01
          0                 6           1             4    6     1       0.9481467070E-04       4    6    1         0.5158265953E-02      0.5423549671E-02

    ------------------------------------------------
       NWT REQUIRED            6 OUTER ITERATIONS 
       AND A TOTAL OF         11 INNER ITERATIONS.
    ------------------------------------------------

 NO OUTPUT CONTROL FOR STRESS PERIOD   49   TIME STEP   21
 
 SOLVING FOR HEAD 
                                                   Max.-Head-Change                         Max.-Flux-Residual
  Residual-Control   Outer-Iter.   Inner-Iter.     Column Row Layer    Maximum-Head-Change  Column Row Layer    Maximum-Flux-Residual          L2-NORM 
          0                 1           2             3    7     1       0.4186123909E-01       4    5    1         0.1828182460E+01      0.4881197895E+01
          0                 2           2             4    6     1      -0.4087846203E-02       4    6    1        -0.2189536179E+00      0.5570995127E+00
          0                 3           2             4    6     1      -0.1253479726E-02       4    6    1        -0.6845141640E-01      0.9393291664E-01
          0                 4           2             4    6     1      -0.3844994163E-03       4    6    1        -0.2090501474E-01      0.2699024792E-01
          0                 5           2             4    6     1      -0.1179840659E-03       4    6    1        -0.6416161956E-02      0.8292472749E-02
          0                 6           1             4    6     1      -0.3621547205E-04       4    6    1        -0.1968931851E-02      0.2552253195E-02

    ------------------------------------------------
       NWT REQUIRED            6 OUTER ITERATIONS 
       AND A TOTAL OF         11 INNER ITERATIONS.
    ------------------------------------------------

 NO OUTPUT CONTROL FOR STRESS PERIOD   49   TIME STEP   22
 
 SOLVING FOR HEAD 
                                                   Max.-Head-Change                         Max.-Flux-Residual
  Residual-Control   Outer-Iter.   Inner-Iter.     Column Row Layer    Maximum-Head-Change  Column Row Layer    Maximum-Flux-Residual          L2-NORM 
          0                 1           2             3    7     1       0.4129358871E-01       4    5    1         0.1759762233E+01      0.4771980426E+01
          0                 2           2             3    7     1      -0.4006044042E-02       4    6    1        -0.1923122223E+00      0.5385294250E+00
          0                 3           2             4    6     1      -0.1100466382E-02       4    6    1        -0.6017204136E-01      0.8763408148E-01
          0                 4           2             4    6     1      -0.3371420244E-03       4    6    1        -0.1834677352E-01      0.2503136250E-01
          0                 5           1             4    6     1      -0.1033171945E-03       4    6    1        -0.5624171564E-02      0.7695188544E-02
          0                 6           1             4    6     1      -0.3167015579E-04       4    6    1        -0.1723612002E-02      0.2370205946E-02

    ------------------------------------------------
       NWT REQUIRED            6 OUTER ITERATIONS 
       AND A TOTAL OF         10 INNER ITERATIONS.
    ------------------------------------------------

 NO OUTPUT CONTROL FOR STRESS PERIOD   49   TIME STEP   23
 
 SOLVING FOR HEAD 
                                                   Max.-Head-Change                         Max.-Flux-Residual
  Residual-Control   Outer-Iter.   Inner-Iter.     Column Row Layer    Maximum-Head-Change  Column Row Layer    Maximum-Flux-Residual          L2-NORM 
          0                 1           2             3    7     1       0.4073277752E-01       4    5    1         0.1695839583E+01      0.4671551735E+01
          0                 2           2             3    7     1      -0.3951747950E-02       4    5    1        -0.1695845130E+00      0.5227970406E+00
          0                 3           2             4    6     1      -0.9587624065E-03       4    6    1        -0.5250814600E-01      0.8260519251E-01
          0                 4           2             4    6     1      -0.2932578489E-03       4    6    1        -0.1597725544E-01      0.2348598774E-01
          0                 5           1             4    6     1      -0.8971787547E-04       4    6    1        -0.4890156411E-02      0.7227633489E-02

    ------------------------------------------------
       NWT REQUIRED            5 OUTER ITERATIONS 
       AND A TOTAL OF          9 INNER ITERATIONS.
    ------------------------------------------------

 NO OUTPUT CONTROL FOR STRESS PERIOD   49   TIME STEP   24
 
 SOLVING FOR HEAD 
                                                   Max.-Head-Change                         Max.-Flux-Residual
  Residual-Control   Outer-Iter.   Inner-Iter.     Column Row Layer    Maximum-Head-Change  Column Row Layer    Maximum-Flux-Residual          L2-NORM 
          0                 1           2             3    7     1       0.4017914276E-01       4    5    1         0.1636121289E+01      0.4579051739E+01
          0                 2           2             3    7     1      -0.3897953395E-02       4    5    1        -0.1636127346E+00      0.5095915517E+00
          0                 3           2             4    6     1      -0.8275814731E-03       4    6    1        -0.4541665851E-01      0.7877729576E-01
          0                 4           2             4    6     1      -0.2526074594E-03       4    6    1        -0.1378336685E-01      0.2233718005E-01
          0                 5           1             4    6     1      -0.7711307436E-04       4    6    1        -0.4210128265E-02      0.6884643792E-02

    ------------------------------------------------
       NWT REQUIRED            5 OUTER ITERATIONS 
       AND A TOTAL OF          9 INNER ITERATIONS.
    ------------------------------------------------

 NO OUTPUT CONTROL FOR STRESS PERIOD   49   TIME STEP   25
 
 SOLVING FOR HEAD 
                                                   Max.-Head-Change                         Max.-Flux-Residual
  Residual-Control   Outer-Iter.   Inner-Iter.     Column Row Layer    Maximum-Head-Change  Column Row Layer    Maximum-Flux-Residual          L2-NORM 
          0                 1           2             3    7     1       0.3963348801E-01       4    5    1         0.1580281920E+01      0.4493683749E+01
          0                 2           2             3    7     1      -0.3844769477E-02       4    5    1        -0.1580288352E+00      0.4985938746E+00
          0                 3           2             5    8     1       0.8247866633E-03       5    8    1         0.4453825114E-01      0.7604357647E-01
          0                 4           2             5    8     1       0.2536422397E-03       5    8    1         0.1378003825E-01      0.2155312424E-01
          0                 5           1             5    8     1       0.7805276381E-04       5    8    1         0.4234797819E-02      0.6656209723E-02

    ------------------------------------------------
       NWT REQUIRED            5 OUTER ITERATIONS 
       AND A TOTAL OF          9 INNER ITERATIONS.
    ------------------------------------------------

 NO OUTPUT CONTROL FOR STRESS PERIOD   49   TIME STEP   26
 
 SOLVING FOR HEAD 
                                                   Max.-Head-Change                         Max.-Flux-Residual
  Residual-Control   Outer-Iter.   Inner-Iter.     Column Row Layer    Maximum-Head-Change  Column Row Layer    Maximum-Flux-Residual          L2-NORM 
          0                 1           2             3    7     1       0.3909688355E-01       4    5    1         0.1528047637E+01      0.4191870392E+01
          0                 2           2             3    7     1      -0.3792331015E-02       4    5    1        -0.1528054358E+00      0.4688941809E+00
          0                 3           2             5    8     1       0.8284329009E-03       5    8    1         0.4471868247E-01      0.7340206496E-01
          0                 4           2             5    8     1       0.2550898852E-03       5    8    1         0.1384419747E-01      0.2100083138E-01
          0                 5           1             5    8     1       0.7859885989E-04       5    8    1         0.4260318798E-02      0.6501938119E-02

    ------------------------------------------------
       NWT REQUIRED            5 OUTER ITERATIONS 
       AND A TOTAL OF          9 INNER ITERATIONS.
    ------------------------------------------------

 NO OUTPUT CONTROL FOR STRESS PERIOD   49   TIME STEP   27
 
 SOLVING FOR HEAD 
                                                   Max.-Head-Change                         Max.-Flux-Residual
  Residual-Control   Outer-Iter.   Inner-Iter.     Column Row Layer    Maximum-Head-Change  Column Row Layer    Maximum-Flux-Residual          L2-NORM 
          0                 1           2             3    7     1       0.3856929139E-01       4    5    1         0.1479030687E+01      0.4344488303E+01
          0                 2           2             3    7     1      -0.3740647669E-02       5    8    1         0.1511155550E+00      0.4819857729E+00
          0                 3           2             5    8     1       0.8376264430E-03       5    8    1         0.4515848894E-01      0.7312513083E-01
          0                 4           2             5    8     1       0.2582256962E-03       5    8    1         0.1400253846E-01      0.2083116025E-01
          0                 5           1             5    8     1       0.7965913300E-04       5    8    1         0.4313930893E-02      0.6464160797E-02

    ------------------------------------------------
       NWT REQUIRED            5 OUTER ITERATIONS 
       AND A TOTAL OF          9 INNER ITERATIONS.
    ------------------------------------------------

 NO OUTPUT CONTROL FOR STRESS PERIOD   49   TIME STEP   28
 
 SOLVING FOR HEAD 
                                                   Max.-Head-Change                         Max.-Flux-Residual
  Residual-Control   Outer-Iter.   Inner-Iter.     Column Row Layer    Maximum-Head-Change  Column Row Layer    Maximum-Flux-Residual          L2-NORM 
          0                 1           2             3    7     1       0.3805157198E-01       4    5    1         0.1433146854E+01      0.4276407877E+01
          0                 2           2             3    7     1      -0.3689823847E-02       5    8    1         0.1523155556E+00      0.4760212995E+00
          0                 3           2             5    8     1       0.8463474093E-03       5    8    1         0.4559788893E-01      0.7294094255E-01
          0                 4           2             5    8     1       0.2611946346E-03       5    8    1         0.1415178408E-01      0.2089583108E-01
          0                 5           1             5    8     1       0.8066157043E-04       5    8    1         0.4364680697E-02      0.6500578183E-02

    ------------------------------------------------
       NWT REQUIRED            5 OUTER ITERATIONS 
       AND A TOTAL OF          9 INNER ITERATIONS.
    ------------------------------------------------

 NO OUTPUT CONTROL FOR STRESS PERIOD   49   TIME STEP   29
 
 SOLVING FOR HEAD 
                                                   Max.-Head-Change                         Max.-Flux-Residual
  Residual-Control   Outer-Iter.   Inner-Iter.     Column Row Layer    Maximum-Head-Change  Column Row Layer    Maximum-Flux-Residual          L2-NORM 
          0                 1           2             3    7     1       0.3754375026E-01       4    5    1         0.1390171827E+01      0.4213109859E+01
          0                 2           2             3    7     1      -0.3639879292E-02       5    8    1         0.1534482312E+00      0.4713038863E+00
          0                 3           2             5    8     1       0.8545634009E-03       5    8    1         0.4601232600E-01      0.7334759455E-01
          0                 4           2             5    8     1       0.2639890457E-03       5    8    1         0.1429234467E-01      0.2115187272E-01
          0                 5           1             5    8     1       0.8160450232E-04       5    8    1         0.4412438049E-02      0.6595996947E-02

    ------------------------------------------------
       NWT REQUIRED            5 OUTER ITERATIONS 
       AND A TOTAL OF          9 INNER ITERATIONS.
    ------------------------------------------------

 NO OUTPUT CONTROL FOR STRESS PERIOD   49   TIME STEP   30



 STREAM LISTING     PERIOD     49   STEP       30

 LAYER ROW COL. STREAM  RCH.  FLOW INTO     FLOW TO   FLOW OUT OF   OVRLND.     DIRECT     STREAM       STREAM     STREAM     STREAM   STREAMBED  STREAMBED
                SEG.NO.  NO.  STRM. RCH.    AQUIFER    STRM. RCH.    RUNOFF     PRECIP       ET          HEAD       DEPTH      WIDTH   CONDCTNC.   GRADIENT

   1    1    1     1     1    7.1250E+00  1.2038E-01   7.0046E+00  0.000E+00  0.000E+00  0.000E+00  1.09385E+03  8.024E-01  7.035E+00  3.166E-02  1.267E+00
   1    2    2     1     2    7.0046E+00  1.8492E-01   6.8197E+00  0.000E+00  0.000E+00  0.000E+00  1.08886E+03  7.976E-01  6.956E+00  4.869E-02  1.266E+00
   1    3    3     1     3    6.8197E+00  1.5635E-01   6.6634E+00  0.000E+00  0.000E+00  0.000E+00  1.08321E+03  7.929E-01  6.870E+00  4.122E-02  1.264E+00
   1    3    4     1     4    6.6634E+00  1.4286E-01   6.5205E+00  0.000E+00  0.000E+00  0.000E+00  1.07820E+03  7.886E-01  6.794E+00  3.771E-02  1.263E+00
   1    4    5     2     1    4.5205E+00  2.6715E-01   4.2533E+00  0.000E+00  0.000E+00  0.000E+00  1.07236E+03  4.251E-01  1.200E+01  7.800E-02  1.142E+00
   1    5    6     2     2    4.2533E+00  2.0467E-01   4.0487E+00  0.000E+00  0.000E+00  0.000E+00  1.06692E+03  4.112E-01  1.200E+01  6.000E-02  1.137E+00
   1    6    6     2     3    4.0487E+00  2.0394E-01   3.8447E+00  0.000E+00  0.000E+00  0.000E+00  1.06219E+03  3.989E-01  1.200E+01  6.000E-02  1.133E+00
   1    7    6     2     4    3.8447E+00  2.0319E-01   3.6416E+00  0.000E+00  0.000E+00  0.000E+00  1.05746E+03  3.864E-01  1.200E+01  6.000E-02  1.129E+00
   1    8    6     2     5    3.6416E+00  2.0242E-01   3.4391E+00  0.000E+00  0.000E+00  0.000E+00  1.05273E+03  3.737E-01  1.200E+01  6.000E-02  1.125E+00
   1    3    5     3     1    2.0000E+00  2.8252E-01   1.7175E+00  0.000E+00  0.000E+00  0.000E+00  1.07555E+03  1.909E+00  9.636E+00  7.227E-02  1.955E+00
   1    3    6     3     2    1.7175E+00  2.4905E-01   1.4684E+00  0.000E+00  0.000E+00  0.000E+00  1.07264E+03  1.727E+00  8.909E+00  6.682E-02  1.864E+00
   1    3    7     3     3    1.4684E+00  1.9718E-01   1.2712E+00  0.000E+00  0.000E+00  0.000E+00  1.06987E+03  1.555E+00  8.218E+00  5.547E-02  1.777E+00
   1    4    8     3     4    1.2712E+00  2.2567E-01   1.0456E+00  0.000E+00  0.000E+00  0.000E+00  1.06682E+03  1.364E+00  7.455E+00  6.709E-02  1.682E+00
   1    5    8     3     5    1.0456E+00  1.5790E-01   8.8768E-01  0.000E+00  0.000E+00  0.000E+00  1.06362E+03  1.164E+00  6.655E+00  4.991E-02  1.582E+00
   1    6    8     3     6    8.8768E-01  5.5980E-02   8.3170E-01  0.000E+00  0.000E+00  0.000E+00  1.06158E+03  1.036E+00  6.145E+00  1.844E-02  1.518E+00
   1    5   10     4     1    1.0000E+01  9.0919E-02   9.9091E+00  0.000E+00  0.000E+00  0.000E+00  1.07836E+03  6.368E-01  1.000E+01  2.500E-02  1.212E+00
   1    5    9     4     2    9.9091E+00  1.8158E-01   9.7275E+00  0.000E+00  0.000E+00  0.000E+00  1.07154E+03  6.315E-01  1.000E+01  5.000E-02  1.211E+00
   1    6    8     4     3    9.7275E+00  1.2689E-01   9.6006E+00  0.000E+00  0.000E+00  0.000E+00  1.06381E+03  6.256E-01  1.000E+01  3.500E-02  1.209E+00
   1    6    8     5     1    1.0432E+01  2.2686E-01   1.0205E+01  0.000E+00  0.000E+00  0.000E+00  1.05868E+03  6.790E-01  1.542E+01  6.166E-02  1.226E+00
   1    7    7     5     2    1.0205E+01  2.7894E-01   9.9265E+00  0.000E+00  0.000E+00  0.000E+00  1.05417E+03  6.732E-01  1.519E+01  7.594E-02  1.224E+00
   1    8    7     5     3    9.9265E+00  1.9221E-01   9.7343E+00  0.000E+00  0.000E+00  0.000E+00  1.04992E+03  6.676E-01  1.497E+01  5.241E-02  1.223E+00
   1    8    6     5     4    9.7343E+00  1.3577E-01   9.5985E+00  0.000E+00  0.000E+00  0.000E+00  1.04691E+03  6.637E-01  1.482E+01  3.706E-02  1.221E+00
   1    9    6     6     1    1.3038E+01  2.2931E-01   1.2808E+01  0.000E+00  0.000E+00  0.000E+00  1.04355E+03  8.218E-01  1.200E+01  6.000E-02  1.274E+00
   1   10    7     6     2    1.2808E+01  2.2878E-01   1.2580E+01  0.000E+00  0.000E+00  0.000E+00  1.03899E+03  8.131E-01  1.200E+01  6.000E-02  1.271E+00
   1   11    7     6     3    1.2580E+01  2.2826E-01   1.2351E+01  0.000E+00  0.000E+00  0.000E+00  1.03444E+03  8.043E-01  1.200E+01  6.000E-02  1.268E+00
   1   12    7     6     4    1.2351E+01  2.2772E-01   1.2124E+01  0.000E+00  0.000E+00  0.000E+00  1.02989E+03  7.954E-01  1.200E+01  6.000E-02  1.265E+00
   1   13    7     6     5    1.2124E+01  1.1526E-02   1.2112E+01  0.000E+00  0.000E+00  0.000E+00  1.02670E+03  7.907E-01  1.200E+01  2.400E-02  1.601E-01
   1   14    9     7     1    1.5000E+02  1.4337E+00   1.4857E+02  0.000E+00  0.000E+00  0.000E+00  1.03987E+03  2.287E+00  5.529E+01  5.593E-01  8.545E-01
   1   13    8     7     2    1.4857E+02  2.1193E+00   1.4645E+02  0.000E+00  0.000E+00  0.000E+00  1.03478E+03  2.278E+00  5.525E+01  6.147E-01  1.149E+00
   1   13    7     7     3    1.4645E+02  1.9356E+00   1.4451E+02  0.000E+00  0.000E+00  0.000E+00  1.02969E+03  2.267E+00  5.520E+01  5.583E-01  1.156E+00
   1   13    6     8     1    1.5662E+02  1.2930E+00   1.5533E+02  0.000E+00  0.000E+00  0.000E+00  1.02473E+03  2.858E+00  4.145E+01  4.224E-01  1.020E+00
   1   13    5     8     2    1.5533E+02  5.2956E-01   1.5480E+02  0.000E+00  0.000E+00  0.000E+00  1.01848E+03  2.852E+00  4.136E+01  4.214E-01  4.189E-01
   1   13    4     8     3    1.5480E+02 -1.2090E+00   1.5601E+02  0.000E+00  0.000E+00  0.000E+00  1.01223E+03  2.854E+00  4.139E+01  4.218E+00 -9.555E-02
   1   13    3     8     4    1.5601E+02 -3.0452E+00   1.5906E+02  0.000E+00  0.000E+00  0.000E+00  1.00599E+03  2.869E+00  4.160E+01  4.239E+00 -2.394E-01
   1   13    2     8     5    1.5906E+02 -2.4298E+00   1.6148E+02  0.000E+00  0.000E+00  0.000E+00  9.99763E+02  2.888E+00  4.187E+01  4.267E+00 -1.898E-01
   1   13    1     8     6    1.6148E+02 -1.9439E+00   1.6343E+02  0.000E+00  0.000E+00  0.000E+00  9.94777E+02  2.902E+00  4.208E+01  2.573E+00 -2.518E-01
   1    8    6     9     1    0.0000E+00  0.0000E+00   0.0000E+00  0.000E+00  0.000E+00  0.000E+00  1.07875E+03  0.000E+00  4.000E+00  0.000E+00  1.000E+00
   1    8    5     9     2    0.0000E+00  0.0000E+00   0.0000E+00  0.000E+00  0.000E+00  0.000E+00  1.07825E+03  0.000E+00  4.000E+00  0.000E+00  1.000E+00





UNSATURATED ZONE PACKAGE VOLUMETRIC BUDGET FOR  TIME STEP    30 STRESS PERIOD   49
  ------------------------------------------------------------------------------



     CUMULATIVE VOLUMES      L**3       RATES FOR THIS TIME STEP      L**3/T
     ------------------                 ------------------------

           IN:                                      IN:
           ---                                      ---
        INFILTRATION = 13010687106.1683          INFILTRATION =           0.8475

          OUT:                                     OUT:
          ----                                     ----
              UZF ET =  1710011236.2094                UZF ET =           0.7950
        UZF RECHARGE = 10803198790.9880          UZF RECHARGE =          13.2281

            IN - OUT =   497477078.9708              IN - OUT =         -13.1756

          STORAGE:                                 STORAGE:
          --------                                 --------
      STORAGE CHANGE =   498858405.2835        STORAGE CHANGE =         -13.1756

 PERCENT DISCREPANCY IS DIFFERENCE BETWEEN IN-OUT MINUS CHANGE IN STORAGE
 DIVIDED BY THE AVERAGE OF IN AND OUT TIMES 100

 PERCENT DISCREPANCY =          -0.00     PERCENT DISCREPANCY =           0.00






1
  VOLUMETRIC BUDGET FOR AGRICULTURAL FIELDS AT  END OF TIME STEP   30, STRESS PERIOD  49
  ------------------------------------------------------------------------------

     CUMULATIVE VOLUMES      L**3       RATES FOR THIS TIME STEP      L**3/T
     ------------------                 ------------------------

           IN:                                      IN:
           ---                                      ---
               AG WELLS  = 12334709760.0000                 AG WELLS  =           0.0000
      DIVERSION SEGMENTS =   568930048.0000        DIVERSION SEGMENTS =           0.0000
           GW IRRIGATION =           0.0000             GW IRRIGATION =           0.0000
           SW IRRIGATION =           0.0000             SW IRRIGATION =           0.0000
        SYSTEM LOSSES GW =           0.0000          SYSTEM LOSSES GW =           0.0000
        SYSTEM LOSSES SW =           0.0000          SYSTEM LOSSES SW =           0.0000

                TOTAL IN = 12903640064.0000                  TOTAL IN =           0.0000

          OUT:                                     OUT:
          ----                                     ----
               AG WELLS  =           0.0000                 AG WELLS  =           0.0000
      DIVERSION SEGMENTS =           0.0000        DIVERSION SEGMENTS =           0.0000
           GW IRRIGATION = 12334709760.0000             GW IRRIGATION =           0.0000
           SW IRRIGATION =   568940352.0000             SW IRRIGATION =           0.0000
        SYSTEM LOSSES GW =           0.0000          SYSTEM LOSSES GW =           0.0000
        SYSTEM LOSSES SW =           0.0000          SYSTEM LOSSES SW =           0.0000

               TOTAL OUT = 12903650304.0000                 TOTAL OUT =           0.0000

                IN - OUT =      -10240.0000                  IN - OUT =           0.0000

     PERCENT DISCREPANCY =          -0.00         PERCENT DISCREPANCY =           0.00



1
  VOLUMETRIC BUDGET FOR ENTIRE MODEL AT END OF TIME STEP   30, STRESS PERIOD  49
  ------------------------------------------------------------------------------

     CUMULATIVE VOLUMES      L**3       RATES FOR THIS TIME STEP      L**3/T
     ------------------                 ------------------------

           IN:                                      IN:
           ---                                      ---
             STORAGE     = 11143499776.0000               STORAGE     =           3.8110
       CONSTANT HEAD     =           0.0000         CONSTANT HEAD     =           0.0000
     HEAD DEP BOUNDS     =    36621376.0000       HEAD DEP BOUNDS     =           0.2924
      STREAM LEAKAGE     =  1565183488.0000        STREAM LEAKAGE     =          12.3241
        UZF RECHARGE     = 10803193856.0000          UZF RECHARGE     =          13.2281
               GW ET     =           0.0000                 GW ET     =           0.0000
     SURFACE LEAKAGE     =           0.0000       SURFACE LEAKAGE     =           0.0000
           AG WELLS      =           0.0000             AG WELLS      =           0.0000

                TOTAL IN = 23548497920.0000                  TOTAL IN =          29.6556

          OUT:                                     OUT:
          ----                                     ----
             STORAGE     = 10008167424.0000               STORAGE     =          20.7378
       CONSTANT HEAD     =           0.0000         CONSTANT HEAD     =           0.0000
     HEAD DEP BOUNDS     =    36334764.0000       HEAD DEP BOUNDS     =           0.2862
      STREAM LEAKAGE     =  1169106048.0000        STREAM LEAKAGE     =           8.6279
        UZF RECHARGE     =           0.0000          UZF RECHARGE     =           0.0000
               GW ET     =           0.0000                 GW ET     =           0.0000
     SURFACE LEAKAGE     =           0.0000       SURFACE LEAKAGE     =           0.0000
           AG WELLS      = 12334709760.0000             AG WELLS      =           0.0000

               TOTAL OUT = 23548317696.0000                 TOTAL OUT =          29.6519

                IN - OUT =      180224.0000                  IN - OUT =       3.6869E-03

     PERCENT DISCREPANCY =           0.00         PERCENT DISCREPANCY =           0.01






         TIME SUMMARY AT END OF TIME STEP   30 IN STRESS PERIOD   49
                    SECONDS     MINUTES      HOURS       DAYS        YEARS
                    -----------------------------------------------------------
   TIME STEP LENGTH  87667.      1461.1      24.352      1.0147     2.77799E-03
 STRESS PERIOD TIME 2.63000E+06  43833.      730.56      30.440     8.33397E-02
         TOTAL TIME 1.26325E+08 2.10542E+06  35090.      1462.1      4.0030    
1


 Run end date and time (yyyy/mm/dd hh:mm:ss): 2020/12/29 17:46:46
 Elapsed run time:  6.922 Seconds

